
  EPA STORM WATER MANAGEMENT MODEL - VERSION 5.1 (Build 5.1.012)
  --------------------------------------------------------------

  
  ERROR 205: invalid keyword RULE_STEP at line 27 of [OPTION] section:
  RULE_STEP