
  EPA STORM WATER MANAGEMENT MODEL - VERSION 5.1 (Build 5.1.012)
  --------------------------------------------------------------

  
  *********************************************************
  NOTE: The summary statistics displayed in this report are
  based on results found at every computational time step,  
  not just on results from each reporting time step.
  *********************************************************
  
  ****************
  Analysis Options
  ****************
  Flow Units ............... CMS
  Process Models:
    Rainfall/Runoff ........ YES
    RDII ................... NO
    Snowmelt ............... NO
    Groundwater ............ NO
    Flow Routing ........... YES
    Ponding Allowed ........ YES
    Water Quality .......... NO
  Infiltration Method ...... HORTON
  Flow Routing Method ...... DYNWAVE
  Starting Date ............ 01/01/2000 00:00:00
  Ending Date .............. 12/31/2000 23:55:00
  Antecedent Dry Days ...... 0.0
  Report Time Step ......... 00:05:00
  Wet Time Step ............ 00:05:00
  Dry Time Step ............ 00:05:00
  Routing Time Step ........ 30.00 sec
  Variable Time Step ....... YES
  Maximum Trials ........... 8
  Number of Threads ........ 4
  Head Tolerance ........... 0.001500 m
  
  
  **************************        Volume         Depth
  Runoff Quantity Continuity     hectare-m            mm
  **************************     ---------       -------
  Total Precipitation ......         1.599         8.872
  Evaporation Loss .........         0.000         0.000
  Infiltration Loss ........         0.000         0.000
  Surface Runoff ...........         1.590         8.824
  Final Storage ............         0.011         0.062
  Continuity Error (%) .....        -0.155
  
  
  **************************        Volume        Volume
  Flow Routing Continuity        hectare-m      10^6 ltr
  **************************     ---------     ---------
  Dry Weather Inflow .......         2.279        22.786
  Wet Weather Inflow .......         1.590        15.901
  Groundwater Inflow .......         0.000         0.000
  RDII Inflow ..............         0.000         0.000
  External Inflow ..........         0.000         0.000
  External Outflow .........        11.341       113.407
  Flooding Loss ............         0.008         0.077
  Evaporation Loss .........         0.000         0.000
  Exfiltration Loss ........         0.000         0.000
  Initial Stored Volume ....         0.000         0.000
  Final Stored Volume ......         0.215         2.153
  Continuity Error (%) .....      -198.908
  
  
  *************************
  Highest Continuity Errors
  *************************
  Node J19 (-212.88%)
  Node T6 (4.85%)
  Node T4 (4.14%)
  Node T2 (3.82%)
  Node T5 (1.08%)
  
  
  ***************************
  Time-Step Critical Elements
  ***************************
  Link C15 (4.79%)
  Node J19 (2.57%)
  
  
  ********************************
  Highest Flow Instability Indexes
  ********************************
  Link C14 (8)
  Link C13 (2)
  Link C20 (1)
  Link C15 (1)
  
  
  *************************
  Routing Time Step Summary
  *************************
  Minimum Time Step           :    30.00 sec
  Average Time Step           :    30.00 sec
  Maximum Time Step           :    30.00 sec
  Percent in Steady State     :     0.00
  Average Iterations per Step :     2.17
  Percent Not Converging      :     2.60
  
  
  ***************************
  Subcatchment Runoff Summary
  ***************************
  
  --------------------------------------------------------------------------------------------------------
                            Total      Total      Total      Total      Total       Total     Peak  Runoff
                           Precip      Runon       Evap      Infil     Runoff      Runoff   Runoff   Coeff
  Subcatchment                 mm         mm         mm         mm         mm    10^6 ltr      CMS
  --------------------------------------------------------------------------------------------------------
  SC01                       9.39       0.00       0.00       0.00       9.35        3.09     0.15   0.996
  SC02                       9.06       0.00       0.00       0.00       9.02        2.05     0.10   0.996
  SC03                       8.67       0.00       0.00       0.00       8.65        1.56     0.10   0.997
  SC04                       9.06       0.00       0.00       0.00       9.00        0.62     0.03   0.993
  SC05                       9.39       0.00       0.00       0.00       9.35        1.46     0.07   0.996
  SC06                       8.15       0.00       0.00       0.00       8.08        2.63     0.09   0.991
  SC07                       9.06       0.00       0.00       0.00       9.00        0.43     0.02   0.993
  SC08                       8.67       0.00       0.00       0.00       8.62        2.41     0.10   0.995
  SC09                       8.15       0.00       0.00       0.00       8.10        0.56     0.02   0.994
  SC010                      9.39       0.00       0.00       0.00       9.34        1.10     0.05   0.995
  
  
  ******************
  Node Depth Summary
  ******************
  
  ---------------------------------------------------------------------------------
                                 Average  Maximum  Maximum  Time of Max    Reported
                                   Depth    Depth      HGL   Occurrence   Max Depth
  Node                 Type       Meters   Meters   Meters  days hr:min      Meters
  ---------------------------------------------------------------------------------
  J1                   JUNCTION     0.05     0.10    34.10     1  07:45        0.10
  J3                   JUNCTION     0.08     0.16    18.16     0  17:17        0.16
  CSO7                 JUNCTION     0.06     0.11    34.11     1  07:46        0.11
  J5                   JUNCTION     0.04     0.07    32.07     1  07:49        0.07
  CSO9                 JUNCTION     0.06     0.13    40.13     2  05:11        0.12
  J8                   JUNCTION     0.06     0.12    36.12     1  08:11        0.12
  CSO8                 JUNCTION     0.06     0.18    32.18     2  05:16        0.18
  J10                  JUNCTION     0.05     0.13    29.13     1  07:23        0.13
  J13                  JUNCTION     0.04     0.09    29.09     1  23:51        0.09
  J15                  JUNCTION     0.12     0.20    15.20     1  14:12        0.20
  J16                  JUNCTION     0.04     0.10    30.10     1  07:45        0.10
  CSO10                JUNCTION     0.06     0.18    30.18     1  07:46        0.18
  J12                  JUNCTION     0.10     0.51    26.51     1  12:48        0.51
  J4                   JUNCTION     0.08     0.13    33.13     1  07:50        0.13
  J6                   JUNCTION     0.03     0.12    25.12     2  06:41        0.12
  J2                   JUNCTION     0.05     0.08    25.08     0  13:41        0.08
  J19                  JUNCTION     0.17     2.00    10.00     0  12:19        2.00
  J9                   JUNCTION     0.05     0.17    29.17     0  09:31        0.17
  J14                  JUNCTION     0.08     0.20    20.20     1  12:51        0.19
  J17                  JUNCTION     0.02     0.15    20.15     1  08:32        0.14
  J7                   JUNCTION     0.05     0.10    39.10     1  07:47        0.10
  J11                  JUNCTION     0.05     0.14    31.14     1  07:43        0.14
  J18                  JUNCTION     0.03     0.08    29.08     1  07:47        0.08
  Out_to_WWTP          OUTFALL      0.13     0.91     6.91     1  08:42        0.91
  T5                   STORAGE      1.71     4.50    31.50     0  13:35        4.50
  T4                   STORAGE      1.77     4.50    31.50     0  17:06        4.50
  T6                   STORAGE      1.66     4.51    35.51     1  07:51        4.49
  T3                   STORAGE      1.73     4.51    26.51     1  12:49        4.50
  T2                   STORAGE      1.92     4.52    25.52     1  08:24        4.52
  T1                   STORAGE      2.55     5.00    15.00     1  15:44        5.00
  
  
  *******************
  Node Inflow Summary
  *******************
  
  -------------------------------------------------------------------------------------------------
                                  Maximum  Maximum                  Lateral       Total        Flow
                                  Lateral    Total  Time of Max      Inflow      Inflow     Balance
                                   Inflow   Inflow   Occurrence      Volume      Volume       Error
  Node                 Type           CMS      CMS  days hr:min    10^6 ltr    10^6 ltr     Percent
  -------------------------------------------------------------------------------------------------
  J1                   JUNCTION     0.085    0.085     1  07:45        4.75        4.75      -0.019
  J3                   JUNCTION     0.000    0.278     0  17:12           0        24.1       0.025
  CSO7                 JUNCTION     0.022    0.022     1  07:45        2.13        2.13       0.006
  J5                   JUNCTION     0.026    0.045     1  07:47        1.37        3.49       0.003
  CSO9                 JUNCTION     0.025    0.025     2  05:10        1.71        1.71       0.001
  J8                   JUNCTION     0.099    0.122     1  08:10        8.14        9.84      -0.006
  CSO8                 JUNCTION     0.097    0.097     2  03:55        3.76        3.76      -0.008
  J10                  JUNCTION     0.104    0.178     2  03:56        3.81        7.57      -0.025
  J13                  JUNCTION     0.105    0.105     2  04:00        4.79        4.79      -0.042
  J15                  JUNCTION     0.000    0.357     1  14:04           0        36.7       0.037
  J16                  JUNCTION     0.165    0.165     1  07:45        6.33        6.33      -0.039
  CSO10                JUNCTION     0.052    0.052     1  07:45        1.91        1.91      -0.001
  J12                  JUNCTION     0.000    0.301     1  08:00           0        16.6      -0.028
  J4                   JUNCTION     0.000    0.022     1  07:46           0        2.13       0.053
  J6                   JUNCTION     0.000    0.076     0  17:07           0        3.16       0.024
  J2                   JUNCTION     0.000    0.037     0  13:35           0        4.65       0.041
  J19                  JUNCTION     0.000    0.271     1  15:45           0        36.2     -68.039
  J9                   JUNCTION     0.000    0.166     1  07:51           0        9.04      -0.043
  J14                  JUNCTION     0.000    0.180     1  12:49           0        16.3       0.010
  J17                  JUNCTION     0.000    0.133     1  08:25           0        4.41       0.013
  J7                   JUNCTION     0.000    0.024     1  22:47           0        1.71       0.063
  J11                  JUNCTION     0.000    0.097     1  07:21           0        3.76       0.021
  J18                  JUNCTION     0.000    0.052     1  07:46           0        1.91      -0.033
  Out_to_WWTP          OUTFALL      0.000    7.640     1  08:42           0         113       0.000
  T5                   STORAGE      0.000    0.085     1  07:46           0        4.75       1.096
  T4                   STORAGE      0.000    0.045     1  07:50           0        3.49       4.322
  T6                   STORAGE      0.000    0.121     1  08:11           0        9.85       5.102
  T3                   STORAGE      0.000    0.295     1  08:07           0        16.6       0.600
  T2                   STORAGE      0.000    0.102     1  23:51           0        4.79       3.972
  T1                   STORAGE      0.000    0.353     1  14:12           0        36.7       0.619
  
  
  **********************
  Node Surcharge Summary
  **********************
  
  Surcharging occurs when water rises above the top of the highest conduit.
  ---------------------------------------------------------------------
                                               Max. Height   Min. Depth
                                   Hours       Above Crown    Below Rim
  Node                 Type      Surcharged         Meters       Meters
  ---------------------------------------------------------------------
  J19                  JUNCTION        1.85          0.000        0.000
  
  
  *********************
  Node Flooding Summary
  *********************
  
  Flooding refers to all water that overflows a node, whether it ponds or not.
  --------------------------------------------------------------------------
                                                             Total   Maximum
                                 Maximum   Time of Max       Flood    Ponded
                        Hours       Rate    Occurrence      Volume     Depth
  Node                 Flooded       CMS   days hr:min    10^6 ltr    Meters
  --------------------------------------------------------------------------
  T1                      1.32     0.035      1  15:44       0.077     0.000
  
  
  **********************
  Storage Volume Summary
  **********************
  
  --------------------------------------------------------------------------------------------------
                         Average     Avg  Evap Exfil       Maximum     Max    Time of Max    Maximum
                          Volume    Pcnt  Pcnt  Pcnt        Volume    Pcnt     Occurrence    Outflow
  Storage Unit           1000 m3    Full  Loss  Loss       1000 m3    Full    days hr:min        CMS
  --------------------------------------------------------------------------------------------------
  T5                       0.171      34     0     0         0.450      90       0  13:35      0.037
  T4                       0.177      35     0     0         0.450      90       0  17:06      0.076
  T6                       0.199      33     0     0         0.541      90       1  07:51      0.166
  T3                       0.901      35     0     0         2.344      90       1  12:49      0.180
  T2                       0.383      38     0     0         0.904      90       1  08:24      0.133
  T1                       0.358      51     0     0         0.700     100       1  15:44      0.271
  
  
  ***********************
  Outfall Loading Summary
  ***********************
  
  -----------------------------------------------------------
                         Flow       Avg       Max       Total
                         Freq      Flow      Flow      Volume
  Outfall Node           Pcnt       CMS       CMS    10^6 ltr
  -----------------------------------------------------------
  Out_to_WWTP           67.37     0.650     7.640     113.406
  -----------------------------------------------------------
  System                67.37     0.650     7.640     113.406
  
  
  ********************
  Link Flow Summary
  ********************
  
  -----------------------------------------------------------------------------
                                 Maximum  Time of Max   Maximum    Max/    Max/
                                  |Flow|   Occurrence   |Veloc|    Full    Full
  Link                 Type          CMS  days hr:min     m/sec    Flow   Depth
  -----------------------------------------------------------------------------
  C1                   CONDUIT     0.038     0  13:44      8.10    0.01    0.12
  C6                   CONDUIT     0.022     1  07:51      1.02    0.35    0.34
  C2                   CONDUIT     0.074     2  06:42      1.65    0.08    0.23
  C9                   CONDUIT     0.023     1  07:47      0.78    0.08    0.21
  C16                  CONDUIT     0.096     1  07:32      1.07    0.01    0.07
  C3                   CONDUIT     0.185     1  12:52      2.48    0.07    0.17
  C19                  CONDUIT     0.132     1  08:32      1.70    0.05    0.17
  C11                  CONDUIT     0.277     0  17:17      2.21    0.01    0.09
  C20                  CONDUIT     0.164     1  07:46      1.87    0.01    0.07
  C22                  CONDUIT     0.052     1  07:47      1.04    0.02    0.16
  C12                  CONDUIT     0.166     0  09:33      1.66    0.01    0.16
  C17                  CONDUIT     0.175     1  07:23      1.98    0.01    0.14
  C10                  CONDUIT     0.121     1  08:11      0.92    0.01    0.54
  C13                  CONDUIT     0.295     1  08:07      1.18    0.02    0.63
  C18                  CONDUIT     0.102     1  23:51      1.00    0.00    0.52
  C23                  CONDUIT     0.353     1  14:12      0.73    0.04    0.57
  C4                   CONDUIT     0.085     1  07:46      1.10    0.02    0.55
  C7                   CONDUIT     0.045     1  07:50      0.79    0.01    0.54
  C14                  CONDUIT     7.640     1  08:42      4.75    0.42    0.51
  C5                   CONDUIT     0.022     1  07:46      1.51    0.38    0.47
  C8                   CONDUIT     0.024     1  22:47      1.10    0.31    0.34
  C15                  CONDUIT     0.097     1  07:21      2.10    0.31    0.35
  C21                  CONDUIT     0.052     1  07:46      1.35    0.30    0.30
  V4                   ORIFICE     0.076     0  17:07                      1.00
  V5                   ORIFICE     0.037     0  13:35                      1.00
  V1                   ORIFICE     0.271     1  15:45                      1.00
  V6                   ORIFICE     0.166     1  07:51                      1.00
  V3                   ORIFICE     0.180     1  12:49                      1.00
  V2                   ORIFICE     0.133     1  08:25                      1.00
  
  
  ***************************
  Flow Classification Summary
  ***************************
  
  -------------------------------------------------------------------------------------
                      Adjusted    ---------- Fraction of Time in Flow Class ---------- 
                       /Actual         Up    Down  Sub   Sup   Up    Down  Norm  Inlet 
  Conduit               Length    Dry  Dry   Dry   Crit  Crit  Crit  Crit  Ltd   Ctrl  
  -------------------------------------------------------------------------------------
  C1                      1.00   0.19  0.00  0.00  0.49  0.32  0.00  0.00  0.56  0.00
  C6                      1.00   0.00  0.00  0.00  0.00  1.00  0.00  0.00  0.00  0.00
  C2                      1.00   0.19  0.33  0.00  0.23  0.26  0.00  0.00  0.76  0.00
  C9                      1.00   0.00  0.00  0.00  1.00  0.00  0.00  0.00  1.00  0.00
  C16                     1.00   0.00  0.02  0.00  0.80  0.19  0.00  0.00  0.64  0.00
  C3                      1.00   0.19  0.21  0.00  0.04  0.56  0.00  0.00  0.22  0.00
  C19                     1.00   0.00  0.67  0.00  0.19  0.14  0.00  0.00  0.55  0.00
  C11                     1.00   0.00  0.19  0.00  0.10  0.72  0.00  0.00  0.81  0.00
  C20                     1.00   0.00  0.00  0.00  0.66  0.34  0.00  0.00  1.00  0.00
  C22                     1.00   0.00  0.00  0.00  0.90  0.10  0.00  0.00  1.00  0.00
  C12                     1.00   0.00  0.46  0.00  0.21  0.33  0.00  0.00  0.76  0.00
  C17                     1.00   0.00  0.00  0.00  0.34  0.66  0.00  0.00  0.96  0.00
  C10                     1.00   0.00  0.00  0.00  0.99  0.01  0.00  0.00  1.00  0.00
  C13                     1.00   0.00  0.00  0.00  0.97  0.03  0.00  0.00  0.88  0.00
  C18                     1.00   0.00  0.00  0.00  0.99  0.01  0.00  0.00  0.99  0.00
  C23                     1.00   0.00  0.00  0.00  0.99  0.01  0.00  0.00  0.99  0.00
  C4                      1.00   0.00  0.00  0.00  0.99  0.01  0.00  0.00  1.00  0.00
  C7                      1.00   0.00  0.00  0.00  0.99  0.01  0.00  0.00  0.99  0.00
  C14                     1.00   0.30  0.03  0.00  0.03  0.65  0.00  0.00  0.46  0.00
  C5                      1.00   0.00  0.00  0.00  0.94  0.06  0.00  0.00  1.00  0.00
  C8                      1.00   0.00  0.00  0.00  0.14  0.86  0.00  0.00  0.00  0.00
  C15                     1.00   0.02  0.00  0.00  0.02  0.97  0.00  0.00  0.02  0.00
  C21                     1.00   0.00  0.00  0.00  0.00  1.00  0.00  0.00  0.00  0.00
  
  
  *************************
  Conduit Surcharge Summary
  *************************
  
  ----------------------------------------------------------------------------
                                                           Hours        Hours 
                         --------- Hours Full --------   Above Full   Capacity
  Conduit                Both Ends  Upstream  Dnstream   Normal Flow   Limited
  ----------------------------------------------------------------------------
  C10                         0.01      0.01     34.93      0.01         0.01
  C13                         0.01      0.01     22.19      0.01         0.01
  C18                         0.01      0.01     33.40      0.01         0.01
  C23                         0.01      0.01     49.47      0.01         0.01
  C4                          0.01      0.01     56.57      0.01         0.01
  C7                          0.01      0.01     43.08      0.01         0.01
  
  
  ********************
  Subcatchment Results
  ********************
  
  <<< Subcatchment SC01 >>>
  ---------------------------------------------------
  Date        Time        Precip.    Losses    Runoff
                            mm/hr     mm/hr       CMS
  ---------------------------------------------------
   01/01/2000 00:05:00      0.000     0.000    0.0000
   01/01/2000 00:10:00      0.000     0.000    0.0000
   01/01/2000 00:15:00      0.000     0.000    0.0000
   01/01/2000 00:20:00      0.000     0.000    0.0000
   01/01/2000 00:25:00      0.000     0.000    0.0000
   01/01/2000 00:30:00      0.000     0.000    0.0000
   01/01/2000 00:35:00      0.360     0.000    0.0000
   01/01/2000 00:40:00      0.240     0.000    0.0000
   01/01/2000 00:45:00      0.240     0.000    0.0000
   01/01/2000 00:50:00      0.000     0.000    0.0000
   01/01/2000 00:55:00      0.000     0.000    0.0000
   01/01/2000 01:00:00      0.000     0.000    0.0000
   01/01/2000 01:05:00      0.000     0.000    0.0000
   01/01/2000 01:10:00      0.360     0.000    0.0000
   01/01/2000 01:15:00      0.360     0.000    0.0025
   01/01/2000 01:20:00      0.600     0.000    0.0044
   01/01/2000 01:25:00      0.840     0.000    0.0085
   01/01/2000 01:30:00      0.600     0.000    0.0156
   01/01/2000 01:35:00      0.000     0.000    0.0203
   01/01/2000 01:40:00      0.000     0.000    0.0178
   01/01/2000 01:45:00      0.240     0.000    0.0157
   01/01/2000 01:50:00      0.240     0.000    0.0165
   01/01/2000 01:55:00      0.000     0.000    0.0171
   01/01/2000 02:00:00      0.000     0.000    0.0151
   01/01/2000 02:05:00      0.240     0.000    0.0135
   01/01/2000 02:10:00      0.240     0.000    0.0144
   01/01/2000 02:15:00      0.360     0.000    0.0153
   01/01/2000 02:20:00      0.840     0.000    0.0173
   01/01/2000 02:25:00      0.000     0.000    0.0250
   01/01/2000 02:30:00      0.360     0.000    0.0216
   01/01/2000 02:35:00      0.000     0.000    0.0231
   01/01/2000 02:40:00      0.000     0.000    0.0201
   01/01/2000 02:45:00      0.000     0.000    0.0177
   01/01/2000 02:50:00      0.000     0.000    0.0156
   01/01/2000 02:55:00      0.240     0.000    0.0139
   01/01/2000 03:00:00      0.240     0.000    0.0148
   01/01/2000 03:05:00      0.000     0.000    0.0156
   01/01/2000 03:10:00      0.360     0.000    0.0138
   01/01/2000 03:15:00      0.000     0.000    0.0160
   01/01/2000 03:20:00      0.360     0.000    0.0142
   01/01/2000 03:25:00      0.360     0.000    0.0163
   01/01/2000 03:30:00      0.000     0.000    0.0183
   01/01/2000 03:35:00      0.000     0.000    0.0161
   01/01/2000 03:40:00      0.360     0.000    0.0143
   01/01/2000 03:45:00      0.000     0.000    0.0164
   01/01/2000 03:50:00      0.360     0.000    0.0146
   01/01/2000 03:55:00      0.000     0.000    0.0167
   01/01/2000 04:00:00      0.000     0.000    0.0148
   01/01/2000 04:05:00      0.000     0.000    0.0131
   01/01/2000 04:10:00      0.000     0.000    0.0118
   01/01/2000 04:15:00      0.360     0.000    0.0106
   01/01/2000 04:20:00      1.080     0.000    0.0129
   01/01/2000 04:25:00      0.720     0.000    0.0232
   01/01/2000 04:30:00      0.720     0.000    0.0292
   01/01/2000 04:35:00      0.720     0.000    0.0347
   01/01/2000 04:40:00      0.240     0.000    0.0396
   01/01/2000 04:45:00      0.360     0.000    0.0368
   01/01/2000 04:50:00      0.000     0.000    0.0362
   01/01/2000 04:55:00      0.000     0.000    0.0307
   01/01/2000 05:00:00      0.000     0.000    0.0263
   01/01/2000 05:05:00      0.000     0.000    0.0228
   01/01/2000 05:10:00      0.000     0.000    0.0198
   01/01/2000 05:15:00      0.000     0.000    0.0174
   01/01/2000 05:20:00      0.000     0.000    0.0154
   01/01/2000 05:25:00      0.000     0.000    0.0137
   01/01/2000 05:30:00      0.840     0.000    0.0122
   01/01/2000 05:35:00      0.000     0.000    0.0197
   01/01/2000 05:40:00      1.560     0.000    0.0173
   01/01/2000 05:45:00      1.080     0.000    0.0346
   01/01/2000 05:50:00      0.720     0.000    0.0450
   01/01/2000 05:55:00      1.560     0.000    0.0486
   01/01/2000 06:00:00      0.720     0.000    0.0661
   01/01/2000 06:05:00      0.360     0.000    0.0661
   01/01/2000 06:10:00      0.240     0.000    0.0597
   01/01/2000 06:15:00      0.360     0.000    0.0528
   01/01/2000 06:20:00      0.360     0.000    0.0493
   01/01/2000 06:25:00      0.360     0.000    0.0465
   01/01/2000 06:30:00      0.360     0.000    0.0442
   01/01/2000 06:35:00      0.000     0.000    0.0423
   01/01/2000 06:40:00      0.000     0.000    0.0355
   01/01/2000 06:45:00      0.000     0.000    0.0302
   01/01/2000 06:50:00      0.000     0.000    0.0259
   01/01/2000 06:55:00      0.000     0.000    0.0224
   01/01/2000 07:00:00      0.000     0.000    0.0195
   01/01/2000 07:05:00      0.000     0.000    0.0172
   01/01/2000 07:10:00      0.000     0.000    0.0152
   01/01/2000 07:15:00      0.000     0.000    0.0135
   01/01/2000 07:20:00      0.000     0.000    0.0121
   01/01/2000 07:25:00      0.000     0.000    0.0108
   01/01/2000 07:30:00      0.000     0.000    0.0098
   01/01/2000 07:35:00      0.000     0.000    0.0088
   01/01/2000 07:40:00      0.000     0.000    0.0080
   01/01/2000 07:45:00      0.000     0.000    0.0073
   01/01/2000 07:50:00      0.000     0.000    0.0067
   01/01/2000 07:55:00      0.000     0.000    0.0062
   01/01/2000 08:00:00      0.000     0.000    0.0057
   01/01/2000 08:05:00      0.000     0.000    0.0052
   01/01/2000 08:10:00      0.000     0.000    0.0049
   01/01/2000 08:15:00      0.000     0.000    0.0045
   01/01/2000 08:20:00      0.000     0.000    0.0042
   01/01/2000 08:25:00      0.000     0.000    0.0039
   01/01/2000 08:30:00      0.000     0.000    0.0036
   01/01/2000 08:35:00      0.000     0.000    0.0034
   01/01/2000 08:40:00      0.000     0.000    0.0032
   01/01/2000 08:45:00      0.000     0.000    0.0030
   01/01/2000 08:50:00      0.000     0.000    0.0028
   01/01/2000 08:55:00      0.000     0.000    0.0026
   01/01/2000 09:00:00      0.000     0.000    0.0025
   01/01/2000 09:05:00      0.000     0.000    0.0024
   01/01/2000 09:10:00      0.000     0.000    0.0000
   01/01/2000 09:15:00      0.000     0.000    0.0000
   01/01/2000 09:20:00      0.000     0.000    0.0000
   01/01/2000 09:25:00      0.000     0.000    0.0000
   01/01/2000 09:30:00      0.000     0.000    0.0000
   01/01/2000 09:35:00      0.000     0.000    0.0000
   01/01/2000 09:40:00      0.000     0.000    0.0000
   01/01/2000 09:45:00      0.000     0.000    0.0000
   01/01/2000 09:50:00      0.000     0.000    0.0000
   01/01/2000 09:55:00      0.000     0.000    0.0000
   01/01/2000 10:00:00      0.000     0.000    0.0000
   01/01/2000 10:05:00      0.000     0.000    0.0000
   01/01/2000 10:10:00      0.000     0.000    0.0000
   01/01/2000 10:15:00      0.000     0.000    0.0000
   01/01/2000 10:20:00      0.000     0.000    0.0000
   01/01/2000 10:25:00      0.000     0.000    0.0000
   01/01/2000 10:30:00      0.000     0.000    0.0000
   01/01/2000 10:35:00      0.000     0.000    0.0000
   01/01/2000 10:40:00      0.000     0.000    0.0000
   01/01/2000 10:45:00      0.000     0.000    0.0000
   01/01/2000 10:50:00      0.000     0.000    0.0000
   01/01/2000 10:55:00      0.000     0.000    0.0000
   01/01/2000 11:00:00      0.000     0.000    0.0000
   01/01/2000 11:05:00      0.000     0.000    0.0000
   01/01/2000 11:10:00      0.000     0.000    0.0000
   01/01/2000 11:15:00      0.000     0.000    0.0000
   01/01/2000 11:20:00      0.000     0.000    0.0000
   01/01/2000 11:25:00      0.000     0.000    0.0000
   01/01/2000 11:30:00      0.000     0.000    0.0000
   01/01/2000 11:35:00      0.000     0.000    0.0000
   01/01/2000 11:40:00      0.000     0.000    0.0000
   01/01/2000 11:45:00      0.000     0.000    0.0000
   01/01/2000 11:50:00      0.000     0.000    0.0000
   01/01/2000 11:55:00      0.000     0.000    0.0000
   01/01/2000 12:00:00      0.000     0.000    0.0000
   01/01/2000 12:05:00      0.000     0.000    0.0000
   01/01/2000 12:10:00      0.000     0.000    0.0000
   01/01/2000 12:15:00      0.000     0.000    0.0000
   01/01/2000 12:20:00      0.000     0.000    0.0000
   01/01/2000 12:25:00      0.000     0.000    0.0000
   01/01/2000 12:30:00      0.000     0.000    0.0000
   01/01/2000 12:35:00      0.000     0.000    0.0000
   01/01/2000 12:40:00      0.000     0.000    0.0000
   01/01/2000 12:45:00      0.000     0.000    0.0000
   01/01/2000 12:50:00      0.000     0.000    0.0000
   01/01/2000 12:55:00      0.000     0.000    0.0000
   01/01/2000 13:00:00      0.000     0.000    0.0000
   01/01/2000 13:05:00      0.000     0.000    0.0000
   01/01/2000 13:10:00      0.000     0.000    0.0000
   01/01/2000 13:15:00      0.000     0.000    0.0000
   01/01/2000 13:20:00      0.000     0.000    0.0000
   01/01/2000 13:25:00      0.000     0.000    0.0000
   01/01/2000 13:30:00      0.000     0.000    0.0000
   01/01/2000 13:35:00      0.000     0.000    0.0000
   01/01/2000 13:40:00      0.000     0.000    0.0000
   01/01/2000 13:45:00      0.000     0.000    0.0000
   01/01/2000 13:50:00      0.000     0.000    0.0000
   01/01/2000 13:55:00      0.000     0.000    0.0000
   01/01/2000 14:00:00      0.000     0.000    0.0000
   01/01/2000 14:05:00      0.000     0.000    0.0000
   01/01/2000 14:10:00      0.000     0.000    0.0000
   01/01/2000 14:15:00      0.000     0.000    0.0000
   01/01/2000 14:20:00      0.000     0.000    0.0000
   01/01/2000 14:25:00      0.000     0.000    0.0000
   01/01/2000 14:30:00      0.000     0.000    0.0000
   01/01/2000 14:35:00      0.000     0.000    0.0000
   01/01/2000 14:40:00      0.000     0.000    0.0000
   01/01/2000 14:45:00      0.000     0.000    0.0000
   01/01/2000 14:50:00      0.000     0.000    0.0000
   01/01/2000 14:55:00      0.000     0.000    0.0000
   01/01/2000 15:00:00      0.000     0.000    0.0000
   01/01/2000 15:05:00      0.000     0.000    0.0000
   01/01/2000 15:10:00      0.000     0.000    0.0000
   01/01/2000 15:15:00      0.000     0.000    0.0000
   01/01/2000 15:20:00      0.000     0.000    0.0000
   01/01/2000 15:25:00      0.000     0.000    0.0000
   01/01/2000 15:30:00      0.000     0.000    0.0000
   01/01/2000 15:35:00      0.000     0.000    0.0000
   01/01/2000 15:40:00      0.000     0.000    0.0000
   01/01/2000 15:45:00      0.000     0.000    0.0000
   01/01/2000 15:50:00      0.000     0.000    0.0000
   01/01/2000 15:55:00      0.000     0.000    0.0000
   01/01/2000 16:00:00      0.000     0.000    0.0000
   01/01/2000 16:05:00      0.000     0.000    0.0000
   01/01/2000 16:10:00      0.000     0.000    0.0000
   01/01/2000 16:15:00      0.000     0.000    0.0000
   01/01/2000 16:20:00      0.000     0.000    0.0000
   01/01/2000 16:25:00      0.000     0.000    0.0000
   01/01/2000 16:30:00      0.000     0.000    0.0000
   01/01/2000 16:35:00      0.000     0.000    0.0000
   01/01/2000 16:40:00      0.000     0.000    0.0000
   01/01/2000 16:45:00      0.000     0.000    0.0000
   01/01/2000 16:50:00      0.000     0.000    0.0000
   01/01/2000 16:55:00      0.000     0.000    0.0000
   01/01/2000 17:00:00      0.000     0.000    0.0000
   01/01/2000 17:05:00      0.000     0.000    0.0000
   01/01/2000 17:10:00      0.000     0.000    0.0000
   01/01/2000 17:15:00      0.000     0.000    0.0000
   01/01/2000 17:20:00      0.000     0.000    0.0000
   01/01/2000 17:25:00      0.000     0.000    0.0000
   01/01/2000 17:30:00      0.000     0.000    0.0000
   01/01/2000 17:35:00      0.000     0.000    0.0000
   01/01/2000 17:40:00      0.000     0.000    0.0000
   01/01/2000 17:45:00      0.000     0.000    0.0000
   01/01/2000 17:50:00      0.000     0.000    0.0000
   01/01/2000 17:55:00      0.000     0.000    0.0000
   01/01/2000 18:00:00      0.000     0.000    0.0000
   01/01/2000 18:05:00      0.000     0.000    0.0000
   01/01/2000 18:10:00      0.000     0.000    0.0000
   01/01/2000 18:15:00      0.000     0.000    0.0000
   01/01/2000 18:20:00      0.000     0.000    0.0000
   01/01/2000 18:25:00      0.000     0.000    0.0000
   01/01/2000 18:30:00      0.000     0.000    0.0000
   01/01/2000 18:35:00      0.000     0.000    0.0000
   01/01/2000 18:40:00      0.000     0.000    0.0000
   01/01/2000 18:45:00      0.000     0.000    0.0000
   01/01/2000 18:50:00      0.000     0.000    0.0000
   01/01/2000 18:55:00      0.000     0.000    0.0000
   01/01/2000 19:00:00      0.000     0.000    0.0000
   01/01/2000 19:05:00      0.000     0.000    0.0000
   01/01/2000 19:10:00      0.000     0.000    0.0000
   01/01/2000 19:15:00      0.000     0.000    0.0000
   01/01/2000 19:20:00      0.000     0.000    0.0000
   01/01/2000 19:25:00      0.000     0.000    0.0000
   01/01/2000 19:30:00      0.000     0.000    0.0000
   01/01/2000 19:35:00      0.000     0.000    0.0000
   01/01/2000 19:40:00      0.000     0.000    0.0000
   01/01/2000 19:45:00      0.000     0.000    0.0000
   01/01/2000 19:50:00      0.000     0.000    0.0000
   01/01/2000 19:55:00      0.000     0.000    0.0000
   01/01/2000 20:00:00      0.000     0.000    0.0000
   01/01/2000 20:05:00      0.000     0.000    0.0000
   01/01/2000 20:10:00      0.000     0.000    0.0000
   01/01/2000 20:15:00      0.000     0.000    0.0000
   01/01/2000 20:20:00      0.000     0.000    0.0000
   01/01/2000 20:25:00      0.000     0.000    0.0000
   01/01/2000 20:30:00      0.000     0.000    0.0000
   01/01/2000 20:35:00      0.000     0.000    0.0000
   01/01/2000 20:40:00      0.000     0.000    0.0000
   01/01/2000 20:45:00      0.000     0.000    0.0000
   01/01/2000 20:50:00      0.000     0.000    0.0000
   01/01/2000 20:55:00      0.000     0.000    0.0000
   01/01/2000 21:00:00      0.000     0.000    0.0000
   01/01/2000 21:05:00      0.000     0.000    0.0000
   01/01/2000 21:10:00      0.000     0.000    0.0000
   01/01/2000 21:15:00      0.000     0.000    0.0000
   01/01/2000 21:20:00      0.000     0.000    0.0000
   01/01/2000 21:25:00      0.000     0.000    0.0000
   01/01/2000 21:30:00      0.000     0.000    0.0000
   01/01/2000 21:35:00      0.000     0.000    0.0000
   01/01/2000 21:40:00      0.000     0.000    0.0000
   01/01/2000 21:45:00      0.000     0.000    0.0000
   01/01/2000 21:50:00      0.000     0.000    0.0000
   01/01/2000 21:55:00      0.000     0.000    0.0000
   01/01/2000 22:00:00      0.000     0.000    0.0000
   01/01/2000 22:05:00      0.000     0.000    0.0000
   01/01/2000 22:10:00      0.000     0.000    0.0000
   01/01/2000 22:15:00      0.000     0.000    0.0000
   01/01/2000 22:20:00      0.000     0.000    0.0000
   01/01/2000 22:25:00      0.000     0.000    0.0000
   01/01/2000 22:30:00      0.000     0.000    0.0000
   01/01/2000 22:35:00      0.000     0.000    0.0000
   01/01/2000 22:40:00      0.000     0.000    0.0000
   01/01/2000 22:45:00      0.000     0.000    0.0000
   01/01/2000 22:50:00      0.000     0.000    0.0000
   01/01/2000 22:55:00      0.000     0.000    0.0000
   01/01/2000 23:00:00      0.000     0.000    0.0000
   01/01/2000 23:05:00      0.000     0.000    0.0000
   01/01/2000 23:10:00      0.000     0.000    0.0000
   01/01/2000 23:15:00      0.000     0.000    0.0000
   01/01/2000 23:20:00      0.000     0.000    0.0000
   01/01/2000 23:25:00      0.000     0.000    0.0000
   01/01/2000 23:30:00      0.000     0.000    0.0000
   01/01/2000 23:35:00      0.000     0.000    0.0000
   01/01/2000 23:40:00      0.000     0.000    0.0000
   01/01/2000 23:45:00      0.000     0.000    0.0000
   01/01/2000 23:50:00      0.000     0.000    0.0000
   01/01/2000 23:55:00      0.000     0.000    0.0000
   01/02/2000 00:00:00      0.000     0.000    0.0000
   01/02/2000 00:05:00      0.000     0.000    0.0000
   01/02/2000 00:10:00      0.000     0.000    0.0000
   01/02/2000 00:15:00      0.000     0.000    0.0000
   01/02/2000 00:20:00      0.000     0.000    0.0000
   01/02/2000 00:25:00      0.000     0.000    0.0000
   01/02/2000 00:30:00      0.000     0.000    0.0000
   01/02/2000 00:35:00      0.000     0.000    0.0000
   01/02/2000 00:40:00      0.000     0.000    0.0000
   01/02/2000 00:45:00      0.000     0.000    0.0000
   01/02/2000 00:50:00      0.000     0.000    0.0000
   01/02/2000 00:55:00      0.000     0.000    0.0000
   01/02/2000 01:00:00      0.000     0.000    0.0000
   01/02/2000 01:05:00      0.000     0.000    0.0000
   01/02/2000 01:10:00      0.000     0.000    0.0000
   01/02/2000 01:15:00      0.000     0.000    0.0000
   01/02/2000 01:20:00      0.000     0.000    0.0000
   01/02/2000 01:25:00      0.000     0.000    0.0000
   01/02/2000 01:30:00      0.000     0.000    0.0000
   01/02/2000 01:35:00      0.000     0.000    0.0000
   01/02/2000 01:40:00      0.000     0.000    0.0000
   01/02/2000 01:45:00      0.000     0.000    0.0000
   01/02/2000 01:50:00      0.000     0.000    0.0000
   01/02/2000 01:55:00      0.000     0.000    0.0000
   01/02/2000 02:00:00      0.000     0.000    0.0000
   01/02/2000 02:05:00      0.000     0.000    0.0000
   01/02/2000 02:10:00      0.000     0.000    0.0000
   01/02/2000 02:15:00      0.000     0.000    0.0000
   01/02/2000 02:20:00      0.000     0.000    0.0000
   01/02/2000 02:25:00      0.000     0.000    0.0000
   01/02/2000 02:30:00      0.000     0.000    0.0000
   01/02/2000 02:35:00      0.000     0.000    0.0000
   01/02/2000 02:40:00      0.000     0.000    0.0000
   01/02/2000 02:45:00      0.000     0.000    0.0000
   01/02/2000 02:50:00      0.000     0.000    0.0000
   01/02/2000 02:55:00      0.000     0.000    0.0000
   01/02/2000 03:00:00      0.000     0.000    0.0000
   01/02/2000 03:05:00      0.000     0.000    0.0000
   01/02/2000 03:10:00      0.000     0.000    0.0000
   01/02/2000 03:15:00      0.000     0.000    0.0000
   01/02/2000 03:20:00      0.000     0.000    0.0000
   01/02/2000 03:25:00      0.000     0.000    0.0000
   01/02/2000 03:30:00      0.000     0.000    0.0000
   01/02/2000 03:35:00      0.000     0.000    0.0000
   01/02/2000 03:40:00      0.000     0.000    0.0000
   01/02/2000 03:45:00      0.000     0.000    0.0000
   01/02/2000 03:50:00      0.000     0.000    0.0000
   01/02/2000 03:55:00      0.000     0.000    0.0000
   01/02/2000 04:00:00      0.000     0.000    0.0000
   01/02/2000 04:05:00      0.000     0.000    0.0000
   01/02/2000 04:10:00      0.000     0.000    0.0000
   01/02/2000 04:15:00      0.000     0.000    0.0000
   01/02/2000 04:20:00      0.000     0.000    0.0000
   01/02/2000 04:25:00      0.000     0.000    0.0000
   01/02/2000 04:30:00      0.000     0.000    0.0000
   01/02/2000 04:35:00      0.000     0.000    0.0000
   01/02/2000 04:40:00      0.000     0.000    0.0000
   01/02/2000 04:45:00      0.000     0.000    0.0000
   01/02/2000 04:50:00      0.000     0.000    0.0000
   01/02/2000 04:55:00      0.000     0.000    0.0000
   01/02/2000 05:00:00      0.000     0.000    0.0000
   01/02/2000 05:05:00      0.000     0.000    0.0000
   01/02/2000 05:10:00      0.000     0.000    0.0000
   01/02/2000 05:15:00      0.000     0.000    0.0000
   01/02/2000 05:20:00      0.000     0.000    0.0000
   01/02/2000 05:25:00      0.000     0.000    0.0000
   01/02/2000 05:30:00      0.000     0.000    0.0000
   01/02/2000 05:35:00      0.000     0.000    0.0000
   01/02/2000 05:40:00      0.000     0.000    0.0000
   01/02/2000 05:45:00      0.000     0.000    0.0000
   01/02/2000 05:50:00      0.000     0.000    0.0000
   01/02/2000 05:55:00      0.000     0.000    0.0000
   01/02/2000 06:00:00      0.000     0.000    0.0000
   01/02/2000 06:05:00      0.000     0.000    0.0000
   01/02/2000 06:10:00      0.000     0.000    0.0000
   01/02/2000 06:15:00      0.000     0.000    0.0000
   01/02/2000 06:20:00      0.360     0.000    0.0000
   01/02/2000 06:25:00      0.360     0.000    0.0000
   01/02/2000 06:30:00      0.360     0.000    0.0000
   01/02/2000 06:35:00      0.480     0.000    0.0042
   01/02/2000 06:40:00      0.600     0.000    0.0073
   01/02/2000 06:45:00      0.600     0.000    0.0119
   01/02/2000 06:50:00      0.600     0.000    0.0166
   01/02/2000 06:55:00      0.720     0.000    0.0214
   01/02/2000 07:00:00      1.080     0.000    0.0274
   01/02/2000 07:05:00      1.320     0.000    0.0382
   01/02/2000 07:10:00      1.680     0.000    0.0523
   01/02/2000 07:15:00      1.800     0.000    0.0716
   01/02/2000 07:20:00      2.160     0.000    0.0912
   01/02/2000 07:25:00      1.920     0.000    0.1156
   01/02/2000 07:30:00      1.680     0.000    0.1303
   01/02/2000 07:35:00      1.920     0.000    0.1362
   01/02/2000 07:40:00      1.680     0.000    0.1463
   01/02/2000 07:45:00      1.080     0.000    0.1483
   01/02/2000 07:50:00      1.080     0.000    0.1358
   01/02/2000 07:55:00      1.080     0.000    0.1267
   01/02/2000 08:00:00      1.320     0.000    0.1199
   01/02/2000 08:05:00      1.320     0.000    0.1202
   01/02/2000 08:10:00      1.080     0.000    0.1204
   01/02/2000 08:15:00      0.720     0.000    0.1153
   01/02/2000 08:20:00      0.360     0.000    0.1038
   01/02/2000 08:25:00      0.480     0.000    0.0881
   01/02/2000 08:30:00      0.000     0.000    0.0788
   01/02/2000 08:35:00      0.000     0.000    0.0631
   01/02/2000 08:40:00      0.360     0.000    0.0514
   01/02/2000 08:45:00      0.240     0.000    0.0482
   01/02/2000 08:50:00      0.240     0.000    0.0437
   01/02/2000 08:55:00      0.360     0.000    0.0401
   01/02/2000 09:00:00      0.000     0.000    0.0390
   01/02/2000 09:05:00      0.000     0.000    0.0329
   01/02/2000 09:10:00      0.000     0.000    0.0281
   01/02/2000 09:15:00      0.000     0.000    0.0242
   01/02/2000 09:20:00      0.000     0.000    0.0210
   01/02/2000 09:25:00      0.000     0.000    0.0184
   01/02/2000 09:30:00      0.000     0.000    0.0162
   01/02/2000 09:35:00      0.000     0.000    0.0144
   01/02/2000 09:40:00      0.000     0.000    0.0128
   01/02/2000 09:45:00      0.000     0.000    0.0115
   01/02/2000 09:50:00      0.000     0.000    0.0103
   01/02/2000 09:55:00      0.000     0.000    0.0093
   01/02/2000 10:00:00      0.000     0.000    0.0085
   01/02/2000 10:05:00      0.000     0.000    0.0077
   01/02/2000 10:10:00      0.000     0.000    0.0070
   01/02/2000 10:15:00      0.000     0.000    0.0065
   01/02/2000 10:20:00      0.000     0.000    0.0059
   01/02/2000 10:25:00      0.000     0.000    0.0055
   01/02/2000 10:30:00      0.000     0.000    0.0051
   01/02/2000 10:35:00      0.000     0.000    0.0047
   01/02/2000 10:40:00      0.000     0.000    0.0044
   01/02/2000 10:45:00      0.000     0.000    0.0041
   01/02/2000 10:50:00      0.000     0.000    0.0038
   01/02/2000 10:55:00      0.000     0.000    0.0035
   01/02/2000 11:00:00      0.000     0.000    0.0033
   01/02/2000 11:05:00      0.000     0.000    0.0031
   01/02/2000 11:10:00      0.000     0.000    0.0029
   01/02/2000 11:15:00      0.000     0.000    0.0027
   01/02/2000 11:20:00      0.000     0.000    0.0026
   01/02/2000 11:25:00      0.000     0.000    0.0024
   01/02/2000 11:30:00      0.000     0.000    0.0000
   01/02/2000 11:35:00      0.000     0.000    0.0000
   01/02/2000 11:40:00      0.000     0.000    0.0000
   01/02/2000 11:45:00      0.000     0.000    0.0000
   01/02/2000 11:50:00      0.000     0.000    0.0000
   01/02/2000 11:55:00      0.000     0.000    0.0000
   01/02/2000 12:00:00      0.000     0.000    0.0000
   01/02/2000 12:05:00      0.000     0.000    0.0000
   01/02/2000 12:10:00      0.000     0.000    0.0000
   01/02/2000 12:15:00      0.000     0.000    0.0000
   01/02/2000 12:20:00      0.000     0.000    0.0000
   01/02/2000 12:25:00      0.000     0.000    0.0000
   01/02/2000 12:30:00      0.000     0.000    0.0000
   01/02/2000 12:35:00      0.000     0.000    0.0000
   01/02/2000 12:40:00      0.000     0.000    0.0000
   01/02/2000 12:45:00      0.000     0.000    0.0000
   01/02/2000 12:50:00      0.000     0.000    0.0000
   01/02/2000 12:55:00      0.000     0.000    0.0000
   01/02/2000 13:00:00      0.000     0.000    0.0000
   01/02/2000 13:05:00      0.000     0.000    0.0000
   01/02/2000 13:10:00      0.000     0.000    0.0000
   01/02/2000 13:15:00      0.000     0.000    0.0000
   01/02/2000 13:20:00      0.000     0.000    0.0000
   01/02/2000 13:25:00      0.000     0.000    0.0000
   01/02/2000 13:30:00      0.000     0.000    0.0000
   01/02/2000 13:35:00      0.000     0.000    0.0000
   01/02/2000 13:40:00      0.000     0.000    0.0000
   01/02/2000 13:45:00      0.000     0.000    0.0000
   01/02/2000 13:50:00      0.000     0.000    0.0000
   01/02/2000 13:55:00      0.000     0.000    0.0000
   01/02/2000 14:00:00      0.000     0.000    0.0000
   01/02/2000 14:05:00      0.000     0.000    0.0000
   01/02/2000 14:10:00      0.000     0.000    0.0000
   01/02/2000 14:15:00      0.000     0.000    0.0000
   01/02/2000 14:20:00      0.000     0.000    0.0000
   01/02/2000 14:25:00      0.000     0.000    0.0000
   01/02/2000 14:30:00      0.000     0.000    0.0000
   01/02/2000 14:35:00      0.000     0.000    0.0000
   01/02/2000 14:40:00      0.000     0.000    0.0000
   01/02/2000 14:45:00      0.000     0.000    0.0000
   01/02/2000 14:50:00      0.000     0.000    0.0000
   01/02/2000 14:55:00      0.000     0.000    0.0000
   01/02/2000 15:00:00      0.000     0.000    0.0000
   01/02/2000 15:05:00      0.000     0.000    0.0000
   01/02/2000 15:10:00      0.000     0.000    0.0000
   01/02/2000 15:15:00      0.000     0.000    0.0000
   01/02/2000 15:20:00      0.000     0.000    0.0000
   01/02/2000 15:25:00      0.000     0.000    0.0000
   01/02/2000 15:30:00      0.000     0.000    0.0000
   01/02/2000 15:35:00      0.000     0.000    0.0000
   01/02/2000 15:40:00      0.000     0.000    0.0000
   01/02/2000 15:45:00      0.000     0.000    0.0000
   01/02/2000 15:50:00      0.000     0.000    0.0000
   01/02/2000 15:55:00      0.000     0.000    0.0000
   01/02/2000 16:00:00      0.000     0.000    0.0000
   01/02/2000 16:05:00      0.000     0.000    0.0000
   01/02/2000 16:10:00      0.000     0.000    0.0000
   01/02/2000 16:15:00      0.000     0.000    0.0000
   01/02/2000 16:20:00      0.000     0.000    0.0000
   01/02/2000 16:25:00      0.000     0.000    0.0000
   01/02/2000 16:30:00      0.000     0.000    0.0000
   01/02/2000 16:35:00      0.000     0.000    0.0000
   01/02/2000 16:40:00      0.000     0.000    0.0000
   01/02/2000 16:45:00      0.000     0.000    0.0000
   01/02/2000 16:50:00      0.000     0.000    0.0000
   01/02/2000 16:55:00      0.000     0.000    0.0000
   01/02/2000 17:00:00      0.000     0.000    0.0000
   01/02/2000 17:05:00      0.000     0.000    0.0000
   01/02/2000 17:10:00      0.000     0.000    0.0000
   01/02/2000 17:15:00      0.000     0.000    0.0000
   01/02/2000 17:20:00      0.000     0.000    0.0000
   01/02/2000 17:25:00      0.000     0.000    0.0000
   01/02/2000 17:30:00      0.000     0.000    0.0000
   01/02/2000 17:35:00      0.000     0.000    0.0000
   01/02/2000 17:40:00      0.000     0.000    0.0000
   01/02/2000 17:45:00      0.240     0.000    0.0000
   01/02/2000 17:50:00      1.800     0.000    0.0000
   01/02/2000 17:55:00      0.960     0.000    0.0134
   01/02/2000 18:00:00      0.960     0.000    0.0224
   01/02/2000 18:05:00      0.480     0.000    0.0316
   01/02/2000 18:10:00      0.000     0.000    0.0335
   01/02/2000 18:15:00      0.000     0.000    0.0285
   01/02/2000 18:20:00      0.360     0.000    0.0246
   01/02/2000 18:25:00      0.000     0.000    0.0257
   01/02/2000 18:30:00      0.000     0.000    0.0223
   01/02/2000 18:35:00      0.360     0.000    0.0194
   01/02/2000 18:40:00      0.000     0.000    0.0211
   01/02/2000 18:45:00      0.240     0.000    0.0185
   01/02/2000 18:50:00      0.240     0.000    0.0189
   01/02/2000 18:55:00      0.000     0.000    0.0193
   01/02/2000 19:00:00      0.000     0.000    0.0170
   01/02/2000 19:05:00      0.000     0.000    0.0150
   01/02/2000 19:10:00      0.000     0.000    0.0134
   01/02/2000 19:15:00      0.000     0.000    0.0119
   01/02/2000 19:20:00      0.000     0.000    0.0107
   01/02/2000 19:25:00      0.000     0.000    0.0097
   01/02/2000 19:30:00      0.000     0.000    0.0088
   01/02/2000 19:35:00      0.000     0.000    0.0080
   01/02/2000 19:40:00      0.000     0.000    0.0073
   01/02/2000 19:45:00      0.000     0.000    0.0067
   01/02/2000 19:50:00      0.000     0.000    0.0061
   01/02/2000 19:55:00      0.000     0.000    0.0056
   01/02/2000 20:00:00      0.000     0.000    0.0052
   01/02/2000 20:05:00      0.000     0.000    0.0048
   01/02/2000 20:10:00      0.000     0.000    0.0045
   01/02/2000 20:15:00      0.600     0.000    0.0042
   01/02/2000 20:20:00      0.960     0.000    0.0082
   01/02/2000 20:25:00      0.600     0.000    0.0165
   01/02/2000 20:30:00      0.480     0.000    0.0213
   01/02/2000 20:35:00      1.800     0.000    0.0243
   01/02/2000 20:40:00      0.720     0.000    0.0459
   01/02/2000 20:45:00      0.840     0.000    0.0494
   01/02/2000 20:50:00      1.320     0.000    0.0543
   01/02/2000 20:55:00      0.240     0.000    0.0669
   01/02/2000 21:00:00      0.480     0.000    0.0584
   01/02/2000 21:05:00      0.240     0.000    0.0557
   01/02/2000 21:10:00      0.000     0.000    0.0497
   01/02/2000 21:15:00      0.000     0.000    0.0412
   01/02/2000 21:20:00      0.240     0.000    0.0347
   01/02/2000 21:25:00      0.240     0.000    0.0327
   01/02/2000 21:30:00      0.720     0.000    0.0311
   01/02/2000 21:35:00      0.360     0.000    0.0365
   01/02/2000 21:40:00      0.720     0.000    0.0359
   01/02/2000 21:45:00      1.440     0.000    0.0407
   01/02/2000 21:50:00      1.080     0.000    0.0567
   01/02/2000 21:55:00      1.200     0.000    0.0647
   01/02/2000 22:00:00      1.560     0.000    0.0736
   01/02/2000 22:05:00      0.840     0.000    0.0882
   01/02/2000 22:10:00      0.360     0.000    0.0858
   01/02/2000 22:15:00      0.240     0.000    0.0748
   01/02/2000 22:20:00      0.240     0.000    0.0643
   01/02/2000 22:25:00      0.000     0.000    0.0564
   01/02/2000 22:30:00      0.000     0.000    0.0463
   01/02/2000 22:35:00      1.080     0.000    0.0387
   01/02/2000 22:40:00      2.280     0.000    0.0488
   01/02/2000 22:45:00      3.480     0.000    0.0796
   01/02/2000 22:50:00      0.720     0.000    0.1349
   01/02/2000 22:55:00      0.240     0.000    0.1180
   01/02/2000 23:00:00      0.000     0.000    0.0959
   01/02/2000 23:05:00      0.000     0.000    0.0755
   01/02/2000 23:10:00      0.360     0.000    0.0607
   01/02/2000 23:15:00      0.360     0.000    0.0555
   01/02/2000 23:20:00      0.600     0.000    0.0515
   01/02/2000 23:25:00      1.200     0.000    0.0521
   01/02/2000 23:30:00      0.840     0.000    0.0628
   01/02/2000 23:35:00      0.960     0.000    0.0656
   01/02/2000 23:40:00      1.080     0.000    0.0700
   01/02/2000 23:45:00      1.440     0.000    0.0758
   01/02/2000 23:50:00      1.080     0.000    0.0876
   01/02/2000 23:55:00      0.600     0.000    0.0901
   01/03/2000 00:00:00      0.600     0.000    0.0826
   01/03/2000 00:05:00      0.000     0.000    0.0769
   01/03/2000 00:10:00      0.000     0.000    0.0617
   01/03/2000 00:15:00      0.000     0.000    0.0504
   01/03/2000 00:20:00      0.360     0.000    0.0418
   01/03/2000 00:25:00      0.960     0.000    0.0403
   01/03/2000 00:30:00      1.200     0.000    0.0484
   01/03/2000 00:35:00      1.080     0.000    0.0595
   01/03/2000 00:40:00      0.240     0.000    0.0671
   01/03/2000 00:45:00      0.000     0.000    0.0585
   01/03/2000 00:50:00      0.000     0.000    0.0480
   01/03/2000 00:55:00      0.000     0.000    0.0399
   01/03/2000 01:00:00      0.000     0.000    0.0337
   01/03/2000 01:05:00      0.000     0.000    0.0287
   01/03/2000 01:10:00      0.000     0.000    0.0247
   01/03/2000 01:15:00      0.000     0.000    0.0214
   01/03/2000 01:20:00      0.000     0.000    0.0187
   01/03/2000 01:25:00      0.000     0.000    0.0165
   01/03/2000 01:30:00      0.000     0.000    0.0146
   01/03/2000 01:35:00      0.000     0.000    0.0130
   01/03/2000 01:40:00      0.000     0.000    0.0116
   01/03/2000 01:45:00      0.000     0.000    0.0105
   01/03/2000 01:50:00      0.000     0.000    0.0095
   01/03/2000 01:55:00      0.000     0.000    0.0086
   01/03/2000 02:00:00      0.000     0.000    0.0078
   01/03/2000 02:05:00      0.000     0.000    0.0071
   01/03/2000 02:10:00      0.000     0.000    0.0065
   01/03/2000 02:15:00      0.000     0.000    0.0060
   01/03/2000 02:20:00      0.000     0.000    0.0055
   01/03/2000 02:25:00      0.000     0.000    0.0051
   01/03/2000 02:30:00      0.000     0.000    0.0047
   01/03/2000 02:35:00      0.000     0.000    0.0044
   01/03/2000 02:40:00      0.360     0.000    0.0041
   01/03/2000 02:45:00      0.000     0.000    0.0063
   01/03/2000 02:50:00      0.000     0.000    0.0058
   01/03/2000 02:55:00      0.000     0.000    0.0053
   01/03/2000 03:00:00      0.000     0.000    0.0049
   01/03/2000 03:05:00      0.000     0.000    0.0046
   01/03/2000 03:10:00      0.000     0.000    0.0042
   01/03/2000 03:15:00      0.000     0.000    0.0039
   01/03/2000 03:20:00      0.000     0.000    0.0037
   01/03/2000 03:25:00      0.000     0.000    0.0034
   01/03/2000 03:30:00      0.600     0.000    0.0032
   01/03/2000 03:35:00      0.720     0.000    0.0071
   01/03/2000 03:40:00      1.080     0.000    0.0127
   01/03/2000 03:45:00      1.680     0.000    0.0231
   01/03/2000 03:50:00      3.120     0.000    0.0428
   01/03/2000 03:55:00      1.680     0.000    0.0899
   01/03/2000 04:00:00      0.960     0.000    0.1042
   01/03/2000 04:05:00      0.240     0.000    0.1005
   01/03/2000 04:10:00      0.240     0.000    0.0834
   01/03/2000 04:15:00      1.080     0.000    0.0708
   01/03/2000 04:20:00      0.000     0.000    0.0765
   01/03/2000 04:25:00      0.000     0.000    0.0614
   01/03/2000 04:30:00      0.000     0.000    0.0502
   01/03/2000 04:35:00      0.000     0.000    0.0416
   01/03/2000 04:40:00      0.000     0.000    0.0350
   01/03/2000 04:45:00      0.000     0.000    0.0297
   01/03/2000 04:50:00      0.000     0.000    0.0255
   01/03/2000 04:55:00      0.000     0.000    0.0221
   01/03/2000 05:00:00      0.000     0.000    0.0193
   01/03/2000 05:05:00      0.000     0.000    0.0170
   01/03/2000 05:10:00      4.080     0.000    0.0150
   01/03/2000 05:15:00      2.520     0.000    0.0732
   01/03/2000 05:20:00      0.000     0.000    0.1076
   01/03/2000 05:25:00      0.000     0.000    0.0838
   01/03/2000 05:30:00      0.000     0.000    0.0667
   01/03/2000 05:35:00      0.000     0.000    0.0542
   01/03/2000 05:40:00      0.000     0.000    0.0447
   01/03/2000 05:45:00      0.000     0.000    0.0374
   01/03/2000 05:50:00      0.000     0.000    0.0316
   01/03/2000 05:55:00      0.000     0.000    0.0271
   01/03/2000 06:00:00      0.000     0.000    0.0234
   01/03/2000 06:05:00      0.000     0.000    0.0203
   01/03/2000 06:10:00      0.000     0.000    0.0178
   01/03/2000 06:15:00      0.000     0.000    0.0157
   01/03/2000 06:20:00      0.000     0.000    0.0140
   01/03/2000 06:25:00      0.000     0.000    0.0125
   01/03/2000 06:30:00      0.000     0.000    0.0112
   01/03/2000 06:35:00      0.000     0.000    0.0101
   01/03/2000 06:40:00      0.000     0.000    0.0091
   01/03/2000 06:45:00      0.000     0.000    0.0083
   01/03/2000 06:50:00      0.000     0.000    0.0075
   01/03/2000 06:55:00      0.000     0.000    0.0069
   01/03/2000 07:00:00      0.000     0.000    0.0063
   01/03/2000 07:05:00      0.000     0.000    0.0058
   01/03/2000 07:10:00      0.000     0.000    0.0054
   01/03/2000 07:15:00      0.000     0.000    0.0050
   01/03/2000 07:20:00      0.000     0.000    0.0046
   01/03/2000 07:25:00      0.000     0.000    0.0043
   01/03/2000 07:30:00      0.000     0.000    0.0040
   01/03/2000 07:35:00      0.000     0.000    0.0037
   01/03/2000 07:40:00      0.000     0.000    0.0035
   01/03/2000 07:45:00      0.000     0.000    0.0033
   01/03/2000 07:50:00      0.000     0.000    0.0030
   01/03/2000 07:55:00      0.000     0.000    0.0029
   01/03/2000 08:00:00      0.000     0.000    0.0027
   01/03/2000 08:05:00      0.000     0.000    0.0025
   01/03/2000 08:10:00      0.000     0.000    0.0024
   01/03/2000 08:15:00      0.000     0.000    0.0000
   01/03/2000 08:20:00      0.000     0.000    0.0000
   01/03/2000 08:25:00      0.000     0.000    0.0000
   01/03/2000 08:30:00      0.000     0.000    0.0000
   01/03/2000 08:35:00      0.000     0.000    0.0000
   01/03/2000 08:40:00      0.000     0.000    0.0000
   01/03/2000 08:45:00      0.000     0.000    0.0000
   01/03/2000 08:50:00      0.000     0.000    0.0000
   01/03/2000 08:55:00      0.000     0.000    0.0000
   01/03/2000 09:00:00      0.000     0.000    0.0000
   01/03/2000 09:05:00      0.000     0.000    0.0000
   01/03/2000 09:10:00      0.000     0.000    0.0000
   01/03/2000 09:15:00      0.000     0.000    0.0000
   01/03/2000 09:20:00      0.000     0.000    0.0000
   01/03/2000 09:25:00      0.000     0.000    0.0000
   01/03/2000 09:30:00      0.000     0.000    0.0000
   01/03/2000 09:35:00      0.000     0.000    0.0000
   01/03/2000 09:40:00      0.000     0.000    0.0000
   01/03/2000 09:45:00      0.000     0.000    0.0000
   01/03/2000 09:50:00      0.000     0.000    0.0000
   01/03/2000 09:55:00      0.000     0.000    0.0000
   01/03/2000 10:00:00      0.000     0.000    0.0000
   01/03/2000 10:05:00      0.000     0.000    0.0000
   01/03/2000 10:10:00      0.000     0.000    0.0000
   01/03/2000 10:15:00      0.000     0.000    0.0000
   01/03/2000 10:20:00      0.000     0.000    0.0000
   01/03/2000 10:25:00      0.000     0.000    0.0000
   01/03/2000 10:30:00      0.000     0.000    0.0000
   01/03/2000 10:35:00      0.000     0.000    0.0000
   01/03/2000 10:40:00      0.000     0.000    0.0000
   01/03/2000 10:45:00      0.000     0.000    0.0000
   01/03/2000 10:50:00      0.000     0.000    0.0000
   01/03/2000 10:55:00      0.000     0.000    0.0000
   01/03/2000 11:00:00      0.000     0.000    0.0000
   01/03/2000 11:05:00      0.000     0.000    0.0000
   01/03/2000 11:10:00      0.000     0.000    0.0000
   01/03/2000 11:15:00      0.000     0.000    0.0000
   01/03/2000 11:20:00      0.000     0.000    0.0000
   01/03/2000 11:25:00      0.000     0.000    0.0000
   01/03/2000 11:30:00      0.000     0.000    0.0000
   01/03/2000 11:35:00      0.000     0.000    0.0000
   01/03/2000 11:40:00      0.000     0.000    0.0000
   01/03/2000 11:45:00      0.000     0.000    0.0000
   01/03/2000 11:50:00      0.000     0.000    0.0000
   01/03/2000 11:55:00      0.000     0.000    0.0000
   01/03/2000 12:00:00      0.000     0.000    0.0000
   01/03/2000 12:05:00      0.000     0.000    0.0000
   01/03/2000 12:10:00      0.000     0.000    0.0000
   01/03/2000 12:15:00      0.000     0.000    0.0000
   01/03/2000 12:20:00      0.000     0.000    0.0000
   01/03/2000 12:25:00      0.000     0.000    0.0000
   01/03/2000 12:30:00      0.000     0.000    0.0000
   01/03/2000 12:35:00      0.000     0.000    0.0000
   01/03/2000 12:40:00      0.000     0.000    0.0000
   01/03/2000 12:45:00      0.000     0.000    0.0000
   01/03/2000 12:50:00      0.000     0.000    0.0000
   01/03/2000 12:55:00      0.000     0.000    0.0000
   01/03/2000 13:00:00      0.000     0.000    0.0000
   01/03/2000 13:05:00      0.000     0.000    0.0000
   01/03/2000 13:10:00      0.000     0.000    0.0000
   01/03/2000 13:15:00      0.000     0.000    0.0000
   01/03/2000 13:20:00      0.000     0.000    0.0000
   01/03/2000 13:25:00      0.000     0.000    0.0000
   01/03/2000 13:30:00      0.000     0.000    0.0000
   01/03/2000 13:35:00      0.000     0.000    0.0000
   01/03/2000 13:40:00      0.000     0.000    0.0000
   01/03/2000 13:45:00      0.000     0.000    0.0000
   01/03/2000 13:50:00      0.000     0.000    0.0000
   01/03/2000 13:55:00      0.000     0.000    0.0000
   01/03/2000 14:00:00      0.000     0.000    0.0000
   01/03/2000 14:05:00      0.000     0.000    0.0000
   01/03/2000 14:10:00      0.000     0.000    0.0000
   01/03/2000 14:15:00      0.000     0.000    0.0000
   01/03/2000 14:20:00      0.000     0.000    0.0000
   01/03/2000 14:25:00      0.000     0.000    0.0000
   01/03/2000 14:30:00      0.000     0.000    0.0000
   01/03/2000 14:35:00      0.000     0.000    0.0000
   01/03/2000 14:40:00      0.000     0.000    0.0000
   01/03/2000 14:45:00      0.000     0.000    0.0000
   01/03/2000 14:50:00      0.000     0.000    0.0000
   01/03/2000 14:55:00      0.000     0.000    0.0000
   01/03/2000 15:00:00      0.000     0.000    0.0000
   01/03/2000 15:05:00      0.000     0.000    0.0000
   01/03/2000 15:10:00      0.000     0.000    0.0000
   01/03/2000 15:15:00      0.000     0.000    0.0000
   01/03/2000 15:20:00      0.000     0.000    0.0000
   01/03/2000 15:25:00      0.000     0.000    0.0000
   01/03/2000 15:30:00      0.000     0.000    0.0000
   01/03/2000 15:35:00      0.000     0.000    0.0000
   01/03/2000 15:40:00      0.000     0.000    0.0000
   01/03/2000 15:45:00      0.000     0.000    0.0000
   01/03/2000 15:50:00      0.000     0.000    0.0000
   01/03/2000 15:55:00      0.000     0.000    0.0000
   01/03/2000 16:00:00      0.000     0.000    0.0000
   01/03/2000 16:05:00      0.000     0.000    0.0000
   01/03/2000 16:10:00      0.000     0.000    0.0000
   01/03/2000 16:15:00      0.000     0.000    0.0000
   01/03/2000 16:20:00      0.000     0.000    0.0000
   01/03/2000 16:25:00      0.000     0.000    0.0000
   01/03/2000 16:30:00      0.000     0.000    0.0000
   01/03/2000 16:35:00      0.000     0.000    0.0000
   01/03/2000 16:40:00      0.000     0.000    0.0000
   01/03/2000 16:45:00      0.000     0.000    0.0000
   01/03/2000 16:50:00      0.000     0.000    0.0000
   01/03/2000 16:55:00      0.000     0.000    0.0000
   01/03/2000 17:00:00      0.000     0.000    0.0000
   01/03/2000 17:05:00      0.000     0.000    0.0000
   01/03/2000 17:10:00      0.000     0.000    0.0000
   01/03/2000 17:15:00      0.000     0.000    0.0000
   01/03/2000 17:20:00      0.000     0.000    0.0000
   01/03/2000 17:25:00      0.000     0.000    0.0000
   01/03/2000 17:30:00      0.000     0.000    0.0000
   01/03/2000 17:35:00      0.000     0.000    0.0000
   01/03/2000 17:40:00      0.000     0.000    0.0000
   01/03/2000 17:45:00      0.000     0.000    0.0000
   01/03/2000 17:50:00      0.000     0.000    0.0000
   01/03/2000 17:55:00      0.000     0.000    0.0000
   01/03/2000 18:00:00      0.000     0.000    0.0000
   01/03/2000 18:05:00      0.000     0.000    0.0000
   01/03/2000 18:10:00      0.000     0.000    0.0000
   01/03/2000 18:15:00      0.000     0.000    0.0000
   01/03/2000 18:20:00      0.000     0.000    0.0000
   01/03/2000 18:25:00      0.000     0.000    0.0000
   01/03/2000 18:30:00      0.000     0.000    0.0000
   01/03/2000 18:35:00      0.000     0.000    0.0000
   01/03/2000 18:40:00      0.000     0.000    0.0000
   01/03/2000 18:45:00      0.000     0.000    0.0000
   01/03/2000 18:50:00      0.000     0.000    0.0000
   01/03/2000 18:55:00      0.000     0.000    0.0000
   01/03/2000 19:00:00      0.000     0.000    0.0000
   01/03/2000 19:05:00      0.000     0.000    0.0000
   01/03/2000 19:10:00      0.000     0.000    0.0000
   01/03/2000 19:15:00      0.000     0.000    0.0000
   01/03/2000 19:20:00      0.000     0.000    0.0000
   01/03/2000 19:25:00      0.000     0.000    0.0000
   01/03/2000 19:30:00      0.000     0.000    0.0000
   01/03/2000 19:35:00      0.000     0.000    0.0000
   01/03/2000 19:40:00      0.000     0.000    0.0000
   01/03/2000 19:45:00      0.000     0.000    0.0000
   01/03/2000 19:50:00      0.000     0.000    0.0000
   01/03/2000 19:55:00      0.000     0.000    0.0000
   01/03/2000 20:00:00      0.000     0.000    0.0000
   01/03/2000 20:05:00      0.000     0.000    0.0000
   01/03/2000 20:10:00      0.000     0.000    0.0000
   01/03/2000 20:15:00      0.000     0.000    0.0000
   01/03/2000 20:20:00      0.000     0.000    0.0000
   01/03/2000 20:25:00      0.000     0.000    0.0000
   01/03/2000 20:30:00      0.000     0.000    0.0000
   01/03/2000 20:35:00      0.000     0.000    0.0000
   01/03/2000 20:40:00      0.000     0.000    0.0000
   01/03/2000 20:45:00      0.000     0.000    0.0000
   01/03/2000 20:50:00      0.000     0.000    0.0000
   01/03/2000 20:55:00      0.000     0.000    0.0000
   01/03/2000 21:00:00      0.000     0.000    0.0000
   01/03/2000 21:05:00      0.000     0.000    0.0000
   01/03/2000 21:10:00      0.000     0.000    0.0000
   01/03/2000 21:15:00      0.000     0.000    0.0000
   01/03/2000 21:20:00      0.000     0.000    0.0000
   01/03/2000 21:25:00      0.000     0.000    0.0000
   01/03/2000 21:30:00      0.000     0.000    0.0000
   01/03/2000 21:35:00      0.000     0.000    0.0000
   01/03/2000 21:40:00      0.000     0.000    0.0000
   01/03/2000 21:45:00      0.000     0.000    0.0000
   01/03/2000 21:50:00      0.000     0.000    0.0000
   01/03/2000 21:55:00      0.000     0.000    0.0000
   01/03/2000 22:00:00      0.000     0.000    0.0000
   01/03/2000 22:05:00      0.000     0.000    0.0000
   01/03/2000 22:10:00      0.000     0.000    0.0000
   01/03/2000 22:15:00      0.000     0.000    0.0000
   01/03/2000 22:20:00      0.000     0.000    0.0000
   01/03/2000 22:25:00      0.000     0.000    0.0000
   01/03/2000 22:30:00      0.000     0.000    0.0000
   01/03/2000 22:35:00      0.000     0.000    0.0000
   01/03/2000 22:40:00      0.000     0.000    0.0000
   01/03/2000 22:45:00      0.000     0.000    0.0000
   01/03/2000 22:50:00      0.000     0.000    0.0000
   01/03/2000 22:55:00      0.000     0.000    0.0000
   01/03/2000 23:00:00      0.000     0.000    0.0000
   01/03/2000 23:05:00      0.000     0.000    0.0000
   01/03/2000 23:10:00      0.000     0.000    0.0000
   01/03/2000 23:15:00      0.000     0.000    0.0000
   01/03/2000 23:20:00      0.000     0.000    0.0000
   01/03/2000 23:25:00      0.000     0.000    0.0000
   01/03/2000 23:30:00      0.000     0.000    0.0000
   01/03/2000 23:35:00      0.000     0.000    0.0000
   01/03/2000 23:40:00      0.000     0.000    0.0000
   01/03/2000 23:45:00      0.000     0.000    0.0000
   01/03/2000 23:50:00      0.000     0.000    0.0000
   01/03/2000 23:55:00      0.000     0.000    0.0000
  
  
  <<< Subcatchment SC02 >>>
  ---------------------------------------------------
  Date        Time        Precip.    Losses    Runoff
                            mm/hr     mm/hr       CMS
  ---------------------------------------------------
   01/01/2000 00:05:00      0.000     0.000    0.0000
   01/01/2000 00:10:00      0.000     0.000    0.0000
   01/01/2000 00:15:00      0.000     0.000    0.0000
   01/01/2000 00:20:00      0.000     0.000    0.0000
   01/01/2000 00:25:00      0.000     0.000    0.0000
   01/01/2000 00:30:00      0.360     0.000    0.0000
   01/01/2000 00:35:00      0.000     0.000    0.0000
   01/01/2000 00:40:00      0.000     0.000    0.0000
   01/01/2000 00:45:00      0.000     0.000    0.0000
   01/01/2000 00:50:00      0.000     0.000    0.0000
   01/01/2000 00:55:00      0.000     0.000    0.0000
   01/01/2000 01:00:00      0.000     0.000    0.0000
   01/01/2000 01:05:00      0.360     0.000    0.0000
   01/01/2000 01:10:00      0.000     0.000    0.0000
   01/01/2000 01:15:00      0.840     0.000    0.0000
   01/01/2000 01:20:00      0.840     0.000    0.0022
   01/01/2000 01:25:00      0.360     0.000    0.0059
   01/01/2000 01:30:00      0.360     0.000    0.0074
   01/01/2000 01:35:00      0.000     0.000    0.0089
   01/01/2000 01:40:00      0.000     0.000    0.0080
   01/01/2000 01:45:00      0.000     0.000    0.0073
   01/01/2000 01:50:00      0.000     0.000    0.0066
   01/01/2000 01:55:00      0.000     0.000    0.0060
   01/01/2000 02:00:00      0.360     0.000    0.0055
   01/01/2000 02:05:00      0.000     0.000    0.0070
   01/01/2000 02:10:00      0.360     0.000    0.0064
   01/01/2000 02:15:00      0.840     0.000    0.0079
   01/01/2000 02:20:00      0.360     0.000    0.0127
   01/01/2000 02:25:00      0.000     0.000    0.0139
   01/01/2000 02:30:00      0.000     0.000    0.0123
   01/01/2000 02:35:00      0.360     0.000    0.0109
   01/01/2000 02:40:00      0.000     0.000    0.0122
   01/01/2000 02:45:00      0.000     0.000    0.0109
   01/01/2000 02:50:00      0.000     0.000    0.0097
   01/01/2000 02:55:00      0.000     0.000    0.0087
   01/01/2000 03:00:00      0.000     0.000    0.0079
   01/01/2000 03:05:00      0.000     0.000    0.0071
   01/01/2000 03:10:00      0.000     0.000    0.0065
   01/01/2000 03:15:00      0.360     0.000    0.0059
   01/01/2000 03:20:00      0.360     0.000    0.0074
   01/01/2000 03:25:00      0.000     0.000    0.0089
   01/01/2000 03:30:00      0.000     0.000    0.0080
   01/01/2000 03:35:00      0.360     0.000    0.0073
   01/01/2000 03:40:00      0.480     0.000    0.0088
   01/01/2000 03:45:00      0.000     0.000    0.0110
   01/01/2000 03:50:00      0.000     0.000    0.0099
   01/01/2000 03:55:00      0.000     0.000    0.0088
   01/01/2000 04:00:00      0.000     0.000    0.0080
   01/01/2000 04:05:00      0.000     0.000    0.0072
   01/01/2000 04:10:00      0.360     0.000    0.0066
   01/01/2000 04:15:00      0.360     0.000    0.0081
   01/01/2000 04:20:00      0.960     0.000    0.0095
   01/01/2000 04:25:00      0.480     0.000    0.0154
   01/01/2000 04:30:00      0.360     0.000    0.0173
   01/01/2000 04:35:00      0.360     0.000    0.0180
   01/01/2000 04:40:00      0.000     0.000    0.0186
   01/01/2000 04:45:00      0.360     0.000    0.0162
   01/01/2000 04:50:00      0.000     0.000    0.0170
   01/01/2000 04:55:00      0.000     0.000    0.0149
   01/01/2000 05:00:00      0.000     0.000    0.0131
   01/01/2000 05:05:00      0.000     0.000    0.0116
   01/01/2000 05:10:00      0.000     0.000    0.0104
   01/01/2000 05:15:00      0.000     0.000    0.0093
   01/01/2000 05:20:00      0.000     0.000    0.0083
   01/01/2000 05:25:00      0.000     0.000    0.0075
   01/01/2000 05:30:00      0.360     0.000    0.0068
   01/01/2000 05:35:00      1.680     0.000    0.0083
   01/01/2000 05:40:00      0.360     0.000    0.0200
   01/01/2000 05:45:00      1.200     0.000    0.0203
   01/01/2000 05:50:00      0.360     0.000    0.0285
   01/01/2000 05:55:00      0.840     0.000    0.0276
   01/01/2000 06:00:00      0.720     0.000    0.0316
   01/01/2000 06:05:00      0.000     0.000    0.0339
   01/01/2000 06:10:00      0.360     0.000    0.0285
   01/01/2000 06:15:00      0.000     0.000    0.0276
   01/01/2000 06:20:00      0.840     0.000    0.0235
   01/01/2000 06:25:00      0.360     0.000    0.0279
   01/01/2000 06:30:00      0.000     0.000    0.0271
   01/01/2000 06:35:00      0.000     0.000    0.0231
   01/01/2000 06:40:00      0.000     0.000    0.0199
   01/01/2000 06:45:00      0.000     0.000    0.0172
   01/01/2000 06:50:00      0.000     0.000    0.0150
   01/01/2000 06:55:00      0.000     0.000    0.0132
   01/01/2000 07:00:00      0.000     0.000    0.0117
   01/01/2000 07:05:00      0.000     0.000    0.0104
   01/01/2000 07:10:00      0.000     0.000    0.0093
   01/01/2000 07:15:00      0.000     0.000    0.0084
   01/01/2000 07:20:00      0.000     0.000    0.0076
   01/01/2000 07:25:00      0.000     0.000    0.0069
   01/01/2000 07:30:00      0.000     0.000    0.0063
   01/01/2000 07:35:00      0.000     0.000    0.0057
   01/01/2000 07:40:00      0.000     0.000    0.0052
   01/01/2000 07:45:00      0.000     0.000    0.0048
   01/01/2000 07:50:00      0.000     0.000    0.0044
   01/01/2000 07:55:00      0.000     0.000    0.0041
   01/01/2000 08:00:00      0.000     0.000    0.0038
   01/01/2000 08:05:00      0.000     0.000    0.0035
   01/01/2000 08:10:00      0.000     0.000    0.0033
   01/01/2000 08:15:00      0.000     0.000    0.0031
   01/01/2000 08:20:00      0.000     0.000    0.0029
   01/01/2000 08:25:00      0.000     0.000    0.0027
   01/01/2000 08:30:00      0.000     0.000    0.0025
   01/01/2000 08:35:00      0.000     0.000    0.0024
   01/01/2000 08:40:00      0.000     0.000    0.0022
   01/01/2000 08:45:00      0.000     0.000    0.0021
   01/01/2000 08:50:00      0.000     0.000    0.0020
   01/01/2000 08:55:00      0.000     0.000    0.0019
   01/01/2000 09:00:00      0.000     0.000    0.0018
   01/01/2000 09:05:00      0.000     0.000    0.0017
   01/01/2000 09:10:00      0.000     0.000    0.0000
   01/01/2000 09:15:00      0.000     0.000    0.0000
   01/01/2000 09:20:00      0.000     0.000    0.0000
   01/01/2000 09:25:00      0.000     0.000    0.0000
   01/01/2000 09:30:00      0.000     0.000    0.0000
   01/01/2000 09:35:00      0.000     0.000    0.0000
   01/01/2000 09:40:00      0.000     0.000    0.0000
   01/01/2000 09:45:00      0.000     0.000    0.0000
   01/01/2000 09:50:00      0.000     0.000    0.0000
   01/01/2000 09:55:00      0.000     0.000    0.0000
   01/01/2000 10:00:00      0.000     0.000    0.0000
   01/01/2000 10:05:00      0.000     0.000    0.0000
   01/01/2000 10:10:00      0.000     0.000    0.0000
   01/01/2000 10:15:00      0.000     0.000    0.0000
   01/01/2000 10:20:00      0.000     0.000    0.0000
   01/01/2000 10:25:00      0.000     0.000    0.0000
   01/01/2000 10:30:00      0.000     0.000    0.0000
   01/01/2000 10:35:00      0.000     0.000    0.0000
   01/01/2000 10:40:00      0.000     0.000    0.0000
   01/01/2000 10:45:00      0.000     0.000    0.0000
   01/01/2000 10:50:00      0.000     0.000    0.0000
   01/01/2000 10:55:00      0.000     0.000    0.0000
   01/01/2000 11:00:00      0.000     0.000    0.0000
   01/01/2000 11:05:00      0.000     0.000    0.0000
   01/01/2000 11:10:00      0.000     0.000    0.0000
   01/01/2000 11:15:00      0.000     0.000    0.0000
   01/01/2000 11:20:00      0.000     0.000    0.0000
   01/01/2000 11:25:00      0.000     0.000    0.0000
   01/01/2000 11:30:00      0.000     0.000    0.0000
   01/01/2000 11:35:00      0.000     0.000    0.0000
   01/01/2000 11:40:00      0.000     0.000    0.0000
   01/01/2000 11:45:00      0.000     0.000    0.0000
   01/01/2000 11:50:00      0.000     0.000    0.0000
   01/01/2000 11:55:00      0.000     0.000    0.0000
   01/01/2000 12:00:00      0.000     0.000    0.0000
   01/01/2000 12:05:00      0.000     0.000    0.0000
   01/01/2000 12:10:00      0.000     0.000    0.0000
   01/01/2000 12:15:00      0.000     0.000    0.0000
   01/01/2000 12:20:00      0.000     0.000    0.0000
   01/01/2000 12:25:00      0.000     0.000    0.0000
   01/01/2000 12:30:00      0.000     0.000    0.0000
   01/01/2000 12:35:00      0.000     0.000    0.0000
   01/01/2000 12:40:00      0.000     0.000    0.0000
   01/01/2000 12:45:00      0.000     0.000    0.0000
   01/01/2000 12:50:00      0.000     0.000    0.0000
   01/01/2000 12:55:00      0.000     0.000    0.0000
   01/01/2000 13:00:00      0.000     0.000    0.0000
   01/01/2000 13:05:00      0.000     0.000    0.0000
   01/01/2000 13:10:00      0.000     0.000    0.0000
   01/01/2000 13:15:00      0.000     0.000    0.0000
   01/01/2000 13:20:00      0.000     0.000    0.0000
   01/01/2000 13:25:00      0.000     0.000    0.0000
   01/01/2000 13:30:00      0.000     0.000    0.0000
   01/01/2000 13:35:00      0.000     0.000    0.0000
   01/01/2000 13:40:00      0.000     0.000    0.0000
   01/01/2000 13:45:00      0.000     0.000    0.0000
   01/01/2000 13:50:00      0.000     0.000    0.0000
   01/01/2000 13:55:00      0.000     0.000    0.0000
   01/01/2000 14:00:00      0.000     0.000    0.0000
   01/01/2000 14:05:00      0.000     0.000    0.0000
   01/01/2000 14:10:00      0.000     0.000    0.0000
   01/01/2000 14:15:00      0.000     0.000    0.0000
   01/01/2000 14:20:00      0.000     0.000    0.0000
   01/01/2000 14:25:00      0.000     0.000    0.0000
   01/01/2000 14:30:00      0.000     0.000    0.0000
   01/01/2000 14:35:00      0.000     0.000    0.0000
   01/01/2000 14:40:00      0.000     0.000    0.0000
   01/01/2000 14:45:00      0.000     0.000    0.0000
   01/01/2000 14:50:00      0.000     0.000    0.0000
   01/01/2000 14:55:00      0.000     0.000    0.0000
   01/01/2000 15:00:00      0.000     0.000    0.0000
   01/01/2000 15:05:00      0.000     0.000    0.0000
   01/01/2000 15:10:00      0.000     0.000    0.0000
   01/01/2000 15:15:00      0.000     0.000    0.0000
   01/01/2000 15:20:00      0.000     0.000    0.0000
   01/01/2000 15:25:00      0.000     0.000    0.0000
   01/01/2000 15:30:00      0.000     0.000    0.0000
   01/01/2000 15:35:00      0.000     0.000    0.0000
   01/01/2000 15:40:00      0.000     0.000    0.0000
   01/01/2000 15:45:00      0.000     0.000    0.0000
   01/01/2000 15:50:00      0.000     0.000    0.0000
   01/01/2000 15:55:00      0.000     0.000    0.0000
   01/01/2000 16:00:00      0.000     0.000    0.0000
   01/01/2000 16:05:00      0.000     0.000    0.0000
   01/01/2000 16:10:00      0.000     0.000    0.0000
   01/01/2000 16:15:00      0.000     0.000    0.0000
   01/01/2000 16:20:00      0.000     0.000    0.0000
   01/01/2000 16:25:00      0.000     0.000    0.0000
   01/01/2000 16:30:00      0.000     0.000    0.0000
   01/01/2000 16:35:00      0.000     0.000    0.0000
   01/01/2000 16:40:00      0.000     0.000    0.0000
   01/01/2000 16:45:00      0.000     0.000    0.0000
   01/01/2000 16:50:00      0.000     0.000    0.0000
   01/01/2000 16:55:00      0.000     0.000    0.0000
   01/01/2000 17:00:00      0.000     0.000    0.0000
   01/01/2000 17:05:00      0.000     0.000    0.0000
   01/01/2000 17:10:00      0.000     0.000    0.0000
   01/01/2000 17:15:00      0.000     0.000    0.0000
   01/01/2000 17:20:00      0.000     0.000    0.0000
   01/01/2000 17:25:00      0.000     0.000    0.0000
   01/01/2000 17:30:00      0.000     0.000    0.0000
   01/01/2000 17:35:00      0.000     0.000    0.0000
   01/01/2000 17:40:00      0.000     0.000    0.0000
   01/01/2000 17:45:00      0.000     0.000    0.0000
   01/01/2000 17:50:00      0.000     0.000    0.0000
   01/01/2000 17:55:00      0.000     0.000    0.0000
[...]
   01/02/2000 22:10:00      0.000     0.000     0.047     0.000
   01/02/2000 22:15:00      0.000     0.000     0.047     0.000
   01/02/2000 22:20:00      0.000     0.000     0.047     0.000
   01/02/2000 22:25:00      0.000     0.000     0.047     0.000
   01/02/2000 22:30:00      0.000     0.000     0.047     0.000
   01/02/2000 22:35:00      0.000     0.000     0.047     0.000
   01/02/2000 22:40:00      0.000     0.000     0.047     0.000
   01/02/2000 22:45:00      0.000     0.000     0.047     0.000
   01/02/2000 22:50:00      0.000     0.000     0.047     0.000
   01/02/2000 22:55:00      0.000     0.000     0.047     0.000
   01/02/2000 23:00:00      0.000     0.000     0.047     0.000
   01/02/2000 23:05:00      0.000     0.000     0.047     0.000
   01/02/2000 23:10:00      0.000     0.000     0.047     0.000
   01/02/2000 23:15:00      0.000     0.000     0.047     0.000
   01/02/2000 23:20:00      0.000     0.000     0.047     0.000
   01/02/2000 23:25:00      0.000     0.000     0.047     0.000
   01/02/2000 23:30:00      0.000     0.000     0.047     0.000
   01/02/2000 23:35:00      0.000     0.000     0.047     0.000
   01/02/2000 23:40:00      0.000     0.000     0.047     0.000
   01/02/2000 23:45:00      0.000     0.000     0.047     0.000
   01/02/2000 23:50:00      0.000     0.000     0.047     0.000
   01/02/2000 23:55:00      0.000     0.000     0.047     0.000
   01/03/2000 00:00:00      0.000     0.000     0.047     0.000
   01/03/2000 00:05:00      0.000     0.000     0.047     0.000
   01/03/2000 00:10:00      0.000     0.000     0.047     0.000
   01/03/2000 00:15:00      0.000     0.000     0.047     0.000
   01/03/2000 00:20:00      0.000     0.000     0.047     0.000
   01/03/2000 00:25:00      0.000     0.000     0.047     0.000
   01/03/2000 00:30:00      0.000     0.000     0.047     0.000
   01/03/2000 00:35:00      0.000     0.000     0.047     0.000
   01/03/2000 00:40:00      0.000     0.000     0.047     0.000
   01/03/2000 00:45:00      0.000     0.000     0.047     0.000
   01/03/2000 00:50:00      0.000     0.000     0.047     0.000
   01/03/2000 00:55:00      0.000     0.000     0.047     0.000
   01/03/2000 01:00:00      0.000     0.000     0.047     0.000
   01/03/2000 01:05:00      0.000     0.000     0.047     0.000
   01/03/2000 01:10:00      0.000     0.000     0.047     0.000
   01/03/2000 01:15:00      0.000     0.000     0.047     0.000
   01/03/2000 01:20:00      0.000     0.000     0.047     0.000
   01/03/2000 01:25:00      0.000     0.000     0.047     0.000
   01/03/2000 01:30:00      0.000     0.000     0.047     0.000
   01/03/2000 01:35:00      0.000     0.000     0.047     0.000
   01/03/2000 01:40:00      0.000     0.000     0.047     0.000
   01/03/2000 01:45:00      0.000     0.000     0.047     0.000
   01/03/2000 01:50:00      0.000     0.000     0.047     0.000
   01/03/2000 01:55:00      0.000     0.000     0.047     0.000
   01/03/2000 02:00:00      0.000     0.000     0.047     0.000
   01/03/2000 02:05:00      0.000     0.000     0.047     0.000
   01/03/2000 02:10:00      0.000     0.000     0.047     0.000
   01/03/2000 02:15:00      0.000     0.000     0.047     0.000
   01/03/2000 02:20:00      0.000     0.000     0.047     0.000
   01/03/2000 02:25:00      0.000     0.000     0.047     0.000
   01/03/2000 02:30:00      0.000     0.000     0.047     0.000
   01/03/2000 02:35:00      0.000     0.000     0.047     0.000
   01/03/2000 02:40:00      0.000     0.000     0.047     0.000
   01/03/2000 02:45:00      0.000     0.000     0.047     0.000
   01/03/2000 02:50:00      0.000     0.000     0.047     0.000
   01/03/2000 02:55:00      0.000     0.000     0.047     0.000
   01/03/2000 03:00:00      0.000     0.000     0.047     0.000
   01/03/2000 03:05:00      0.000     0.000     0.047     0.000
   01/03/2000 03:10:00      0.000     0.000     0.047     0.000
   01/03/2000 03:15:00      0.000     0.000     0.047     0.000
   01/03/2000 03:20:00      0.000     0.000     0.047     0.000
   01/03/2000 03:25:00      0.000     0.000     0.047     0.000
   01/03/2000 03:30:00      0.000     0.000     0.047     0.000
   01/03/2000 03:35:00      0.000     0.000     0.047     0.000
   01/03/2000 03:40:00      0.000     0.000     0.047     0.000
   01/03/2000 03:45:00      0.000     0.000     0.047     0.000
   01/03/2000 03:50:00      0.000     0.000     0.047     0.000
   01/03/2000 03:55:00      0.000     0.000     0.047     0.000
   01/03/2000 04:00:00      0.000     0.000     0.047     0.000
   01/03/2000 04:05:00      0.000     0.000     0.047     0.000
   01/03/2000 04:10:00      0.000     0.000     0.047     0.000
   01/03/2000 04:15:00      0.000     0.000     0.047     0.000
   01/03/2000 04:20:00      0.000     0.000     0.047     0.000
   01/03/2000 04:25:00      0.000     0.000     0.047     0.000
   01/03/2000 04:30:00      0.000     0.000     0.047     0.000
   01/03/2000 04:35:00      0.000     0.000     0.047     0.000
   01/03/2000 04:40:00      0.000     0.000     0.047     0.000
   01/03/2000 04:45:00      0.000     0.000     0.047     0.000
   01/03/2000 04:50:00      0.000     0.000     0.047     0.000
   01/03/2000 04:55:00      0.000     0.000     0.047     0.000
   01/03/2000 05:00:00      0.000     0.000     0.047     0.000
   01/03/2000 05:05:00      0.000     0.000     0.047     0.000
   01/03/2000 05:10:00      0.000     0.000     0.047     0.000
   01/03/2000 05:15:00      0.000     0.000     0.047     0.000
   01/03/2000 05:20:00      0.000     0.000     0.047     0.000
   01/03/2000 05:25:00      0.000     0.000     0.047     0.000
   01/03/2000 05:30:00      0.000     0.000     0.047     0.000
   01/03/2000 05:35:00      0.000     0.000     0.047     0.000
   01/03/2000 05:40:00      0.000     0.000     0.047     0.000
   01/03/2000 05:45:00      0.000     0.000     0.047     0.000
   01/03/2000 05:50:00      0.000     0.000     0.047     0.000
   01/03/2000 05:55:00      0.000     0.000     0.047     0.000
   01/03/2000 06:00:00      0.000     0.000     0.047     0.000
   01/03/2000 06:05:00      0.000     0.000     0.047     0.000
   01/03/2000 06:10:00      0.000     0.000     0.047     0.000
   01/03/2000 06:15:00      0.000     0.000     0.047     0.000
   01/03/2000 06:20:00      0.000     0.000     0.047     0.000
   01/03/2000 06:25:00      0.000     0.000     0.047     0.000
   01/03/2000 06:30:00      0.000     0.000     0.047     0.000
   01/03/2000 06:35:00      0.000     0.000     0.047     0.000
   01/03/2000 06:40:00      0.000     0.000     0.047     0.000
   01/03/2000 06:45:00      0.000     0.000     0.047     0.000
   01/03/2000 06:50:00      0.000     0.000     0.047     0.000
   01/03/2000 06:55:00      0.000     0.000     0.047     0.000
   01/03/2000 07:00:00      0.000     0.000     0.047     0.000
   01/03/2000 07:05:00      0.000     0.000     0.047     0.000
   01/03/2000 07:10:00      0.000     0.000     0.047     0.000
   01/03/2000 07:15:00      0.000     0.000     0.047     0.000
   01/03/2000 07:20:00      0.000     0.000     0.047     0.000
   01/03/2000 07:25:00      0.000     0.000     0.047     0.000
   01/03/2000 07:30:00      0.000     0.000     0.047     0.000
   01/03/2000 07:35:00      0.000     0.000     0.047     0.000
   01/03/2000 07:40:00      0.000     0.000     0.047     0.000
   01/03/2000 07:45:00      0.000     0.000     0.047     0.000
   01/03/2000 07:50:00      0.132     0.000     0.047     1.000
   01/03/2000 07:55:00      0.131     0.000     0.047     1.000
   01/03/2000 08:00:00      0.129     0.000     0.047     1.000
   01/03/2000 08:05:00      0.128     0.000     0.047     1.000
   01/03/2000 08:10:00      0.127     0.000     0.047     1.000
   01/03/2000 08:15:00      0.125     0.000     0.047     1.000
   01/03/2000 08:20:00      0.124     0.000     0.047     1.000
   01/03/2000 08:25:00      0.123     0.000     0.047     1.000
   01/03/2000 08:30:00      0.121     0.000     0.047     1.000
   01/03/2000 08:35:00      0.120     0.000     0.047     1.000
   01/03/2000 08:40:00      0.118     0.000     0.047     1.000
   01/03/2000 08:45:00      0.117     0.000     0.047     1.000
   01/03/2000 08:50:00      0.116     0.000     0.047     1.000
   01/03/2000 08:55:00      0.114     0.000     0.047     1.000
   01/03/2000 09:00:00      0.113     0.000     0.047     1.000
   01/03/2000 09:05:00      0.112     0.000     0.047     1.000
   01/03/2000 09:10:00      0.110     0.000     0.047     1.000
   01/03/2000 09:15:00      0.109     0.000     0.047     1.000
   01/03/2000 09:20:00      0.108     0.000     0.047     1.000
   01/03/2000 09:25:00      0.106     0.000     0.047     1.000
   01/03/2000 09:30:00      0.105     0.000     0.047     1.000
   01/03/2000 09:35:00      0.104     0.000     0.047     1.000
   01/03/2000 09:40:00      0.102     0.000     0.047     1.000
   01/03/2000 09:45:00      0.101     0.000     0.047     1.000
   01/03/2000 09:50:00      0.100     0.000     0.047     1.000
   01/03/2000 09:55:00      0.098     0.000     0.047     1.000
   01/03/2000 10:00:00      0.097     0.000     0.047     1.000
   01/03/2000 10:05:00      0.096     0.000     0.047     1.000
   01/03/2000 10:10:00      0.094     0.000     0.047     1.000
   01/03/2000 10:15:00      0.093     0.000     0.047     1.000
   01/03/2000 10:20:00      0.092     0.000     0.047     1.000
   01/03/2000 10:25:00      0.091     0.000     0.047     1.000
   01/03/2000 10:30:00      0.089     0.000     0.047     1.000
   01/03/2000 10:35:00      0.088     0.000     0.047     1.000
   01/03/2000 10:40:00      0.087     0.000     0.047     1.000
   01/03/2000 10:45:00      0.086     0.000     0.047     1.000
   01/03/2000 10:50:00      0.084     0.000     0.047     1.000
   01/03/2000 10:55:00      0.083     0.000     0.047     1.000
   01/03/2000 11:00:00      0.082     0.000     0.047     1.000
   01/03/2000 11:05:00      0.081     0.000     0.047     1.000
   01/03/2000 11:10:00      0.080     0.000     0.047     1.000
   01/03/2000 11:15:00      0.079     0.000     0.047     1.000
   01/03/2000 11:20:00      0.078     0.000     0.047     1.000
   01/03/2000 11:25:00      0.077     0.000     0.047     1.000
   01/03/2000 11:30:00      0.076     0.000     0.047     1.000
   01/03/2000 11:35:00      0.075     0.000     0.047     1.000
   01/03/2000 11:40:00      0.074     0.000     0.047     1.000
   01/03/2000 11:45:00      0.073     0.000     0.047     1.000
   01/03/2000 11:50:00      0.072     0.000     0.047     1.000
   01/03/2000 11:55:00      0.071     0.000     0.047     1.000
   01/03/2000 12:00:00      0.070     0.000     0.047     1.000
   01/03/2000 12:05:00      0.069     0.000     0.047     1.000
   01/03/2000 12:10:00      0.068     0.000     0.047     1.000
   01/03/2000 12:15:00      0.067     0.000     0.047     1.000
   01/03/2000 12:20:00      0.066     0.000     0.047     1.000
   01/03/2000 12:25:00      0.065     0.000     0.047     1.000
   01/03/2000 12:30:00      0.065     0.000     0.047     1.000
   01/03/2000 12:35:00      0.064     0.000     0.047     1.000
   01/03/2000 12:40:00      0.063     0.000     0.047     1.000
   01/03/2000 12:45:00      0.062     0.000     0.047     1.000
   01/03/2000 12:50:00      0.061     0.000     0.047     1.000
   01/03/2000 12:55:00      0.060     0.000     0.047     1.000
   01/03/2000 13:00:00      0.059     0.000     0.047     1.000
   01/03/2000 13:05:00      0.058     0.000     0.047     1.000
   01/03/2000 13:10:00      0.057     0.000     0.047     1.000
   01/03/2000 13:15:00      0.057     0.000     0.047     1.000
   01/03/2000 13:20:00      0.056     0.000     0.047     1.000
   01/03/2000 13:25:00      0.055     0.000     0.047     1.000
   01/03/2000 13:30:00      0.054     0.000     0.047     1.000
   01/03/2000 13:35:00      0.053     0.000     0.047     1.000
   01/03/2000 13:40:00      0.052     0.000     0.047     1.000
   01/03/2000 13:45:00      0.051     0.000     0.047     1.000
   01/03/2000 13:50:00      0.050     0.000     0.047     1.000
   01/03/2000 13:55:00      0.049     0.000     0.047     1.000
   01/03/2000 14:00:00      0.049     0.000     0.047     1.000
   01/03/2000 14:05:00      0.048     0.000     0.047     1.000
   01/03/2000 14:10:00      0.047     0.000     0.047     1.000
   01/03/2000 14:15:00      0.046     0.000     0.047     1.000
   01/03/2000 14:20:00      0.045     0.000     0.047     1.000
   01/03/2000 14:25:00      0.044     0.000     0.047     1.000
   01/03/2000 14:30:00      0.043     0.000     0.047     1.000
   01/03/2000 14:35:00      0.042     0.000     0.047     1.000
   01/03/2000 14:40:00      0.041     0.000     0.047     1.000
   01/03/2000 14:45:00      0.040     0.000     0.047     1.000
   01/03/2000 14:50:00      0.039     0.000     0.047     1.000
   01/03/2000 14:55:00      0.038     0.000     0.047     1.000
   01/03/2000 15:00:00      0.037     0.000     0.047     1.000
   01/03/2000 15:05:00      0.036     0.000     0.047     1.000
   01/03/2000 15:10:00      0.035     0.000     0.047     1.000
   01/03/2000 15:15:00      0.034     0.000     0.047     1.000
   01/03/2000 15:20:00      0.033     0.000     0.047     1.000
   01/03/2000 15:25:00      0.000     0.000     0.047     0.000
   01/03/2000 15:30:00      0.000     0.000     0.047     0.000
   01/03/2000 15:35:00      0.000     0.000     0.047     0.000
   01/03/2000 15:40:00      0.000     0.000     0.047     0.000
   01/03/2000 15:45:00      0.000     0.000     0.047     0.000
   01/03/2000 15:50:00      0.000     0.000     0.047     0.000
   01/03/2000 15:55:00      0.000     0.000     0.047     0.000
   01/03/2000 16:00:00      0.000     0.000     0.047     0.000
   01/03/2000 16:05:00      0.000     0.000     0.047     0.000
   01/03/2000 16:10:00      0.000     0.000     0.047     0.000
   01/03/2000 16:15:00      0.000     0.000     0.047     0.000
   01/03/2000 16:20:00      0.000     0.000     0.047     0.000
   01/03/2000 16:25:00      0.000     0.000     0.047     0.000
   01/03/2000 16:30:00      0.000     0.000     0.047     0.000
   01/03/2000 16:35:00      0.000     0.000     0.047     0.000
   01/03/2000 16:40:00      0.000     0.000     0.047     0.000
   01/03/2000 16:45:00      0.000     0.000     0.047     0.000
   01/03/2000 16:50:00      0.000     0.000     0.047     0.000
   01/03/2000 16:55:00      0.000     0.000     0.047     0.000
   01/03/2000 17:00:00      0.000     0.000     0.047     0.000
   01/03/2000 17:05:00      0.000     0.000     0.047     0.000
   01/03/2000 17:10:00      0.000     0.000     0.047     0.000
   01/03/2000 17:15:00      0.000     0.000     0.047     0.000
   01/03/2000 17:20:00      0.000     0.000     0.047     0.000
   01/03/2000 17:25:00      0.000     0.000     0.047     0.000
   01/03/2000 17:30:00      0.000     0.000     0.047     0.000
   01/03/2000 17:35:00      0.000     0.000     0.047     0.000
   01/03/2000 17:40:00      0.000     0.000     0.047     0.000
   01/03/2000 17:45:00      0.000     0.000     0.047     0.000
   01/03/2000 17:50:00      0.000     0.000     0.047     0.000
   01/03/2000 17:55:00      0.000     0.000     0.047     0.000
   01/03/2000 18:00:00      0.000     0.000     0.047     0.000
   01/03/2000 18:05:00      0.000     0.000     0.047     0.000
   01/03/2000 18:10:00      0.000     0.000     0.047     0.000
   01/03/2000 18:15:00      0.000     0.000     0.047     0.000
   01/03/2000 18:20:00      0.000     0.000     0.047     0.000
   01/03/2000 18:25:00      0.000     0.000     0.047     0.000
   01/03/2000 18:30:00      0.000     0.000     0.047     0.000
   01/03/2000 18:35:00      0.000     0.000     0.047     0.000
   01/03/2000 18:40:00      0.000     0.000     0.047     0.000
   01/03/2000 18:45:00      0.000     0.000     0.047     0.000
   01/03/2000 18:50:00      0.000     0.000     0.047     0.000
   01/03/2000 18:55:00      0.000     0.000     0.047     0.000
   01/03/2000 19:00:00      0.000     0.000     0.047     0.000
   01/03/2000 19:05:00      0.000     0.000     0.047     0.000
   01/03/2000 19:10:00      0.000     0.000     0.047     0.000
   01/03/2000 19:15:00      0.000     0.000     0.047     0.000
   01/03/2000 19:20:00      0.000     0.000     0.047     0.000
   01/03/2000 19:25:00      0.000     0.000     0.047     0.000
   01/03/2000 19:30:00      0.000     0.000     0.047     0.000
   01/03/2000 19:35:00      0.000     0.000     0.047     0.000
   01/03/2000 19:40:00      0.000     0.000     0.047     0.000
   01/03/2000 19:45:00      0.000     0.000     0.047     0.000
   01/03/2000 19:50:00      0.000     0.000     0.047     0.000
   01/03/2000 19:55:00      0.000     0.000     0.047     0.000
   01/03/2000 20:00:00      0.000     0.000     0.047     0.000
   01/03/2000 20:05:00      0.000     0.000     0.047     0.000
   01/03/2000 20:10:00      0.000     0.000     0.047     0.000
   01/03/2000 20:15:00      0.000     0.000     0.047     0.000
   01/03/2000 20:20:00      0.000     0.000     0.047     0.000
   01/03/2000 20:25:00      0.000     0.000     0.047     0.000
   01/03/2000 20:30:00      0.000     0.000     0.047     0.000
   01/03/2000 20:35:00      0.000     0.000     0.047     0.000
   01/03/2000 20:40:00      0.000     0.000     0.047     0.000
   01/03/2000 20:45:00      0.000     0.000     0.047     0.000
   01/03/2000 20:50:00      0.000     0.000     0.047     0.000
   01/03/2000 20:55:00      0.000     0.000     0.047     0.000
   01/03/2000 21:00:00      0.000     0.000     0.047     0.000
   01/03/2000 21:05:00      0.000     0.000     0.047     0.000
   01/03/2000 21:10:00      0.000     0.000     0.047     0.000
   01/03/2000 21:15:00      0.000     0.000     0.047     0.000
   01/03/2000 21:20:00      0.000     0.000     0.047     0.000
   01/03/2000 21:25:00      0.000     0.000     0.047     0.000
   01/03/2000 21:30:00      0.000     0.000     0.047     0.000
   01/03/2000 21:35:00      0.000     0.000     0.047     0.000
   01/03/2000 21:40:00      0.000     0.000     0.047     0.000
   01/03/2000 21:45:00      0.000     0.000     0.047     0.000
   01/03/2000 21:50:00      0.000     0.000     0.047     0.000
   01/03/2000 21:55:00      0.000     0.000     0.047     0.000
   01/03/2000 22:00:00      0.000     0.000     0.047     0.000
   01/03/2000 22:05:00      0.000     0.000     0.047     0.000
   01/03/2000 22:10:00      0.000     0.000     0.047     0.000
   01/03/2000 22:15:00      0.000     0.000     0.047     0.000
   01/03/2000 22:20:00      0.000     0.000     0.047     0.000
   01/03/2000 22:25:00      0.000     0.000     0.047     0.000
   01/03/2000 22:30:00      0.000     0.000     0.047     0.000
   01/03/2000 22:35:00      0.000     0.000     0.047     0.000
   01/03/2000 22:40:00      0.000     0.000     0.047     0.000
   01/03/2000 22:45:00      0.000     0.000     0.047     0.000
   01/03/2000 22:50:00      0.000     0.000     0.047     0.000
   01/03/2000 22:55:00      0.000     0.000     0.047     0.000
   01/03/2000 23:00:00      0.000     0.000     0.047     0.000
   01/03/2000 23:05:00      0.000     0.000     0.047     0.000
   01/03/2000 23:10:00      0.000     0.000     0.047     0.000
   01/03/2000 23:15:00      0.000     0.000     0.047     0.000
   01/03/2000 23:20:00      0.000     0.000     0.047     0.000
   01/03/2000 23:25:00      0.000     0.000     0.047     0.000
   01/03/2000 23:30:00      0.000     0.000     0.047     0.000
   01/03/2000 23:35:00      0.000     0.000     0.047     0.000
   01/03/2000 23:40:00      0.000     0.000     0.047     0.000
   01/03/2000 23:45:00      0.000     0.000     0.047     0.000
   01/03/2000 23:50:00      0.000     0.000     0.047     0.000
   01/03/2000 23:55:00      0.000     0.000     0.047     0.000
  

  Analysis begun on:  Fri Feb 17 18:14:54 2023
  Analysis ended on:  Fri Feb 17 18:15:22 2023
  Total elapsed time: 00:00:28